                                  MODFLOW-2005     
      U.S. GEOLOGICAL SURVEY MODULAR FINITE-DIFFERENCE GROUND-WATER FLOW MODEL
                            VERSION 1.11.00 8/8/2013

 LIST FILE: output.dat
                         UNIT    3

 OPENING discret.dat
 FILE TYPE:DIS   UNIT  105   STATUS:OLD    
 FORMAT:FORMATTED              ACCESS:SEQUENTIAL          

 OPENING bas6.dat
 FILE TYPE:BAS6   UNIT    1   STATUS:OLD    
 FORMAT:FORMATTED              ACCESS:SEQUENTIAL          

 OPENING zone.dat
 FILE TYPE:ZONE   UNIT   93   STATUS:OLD    
 FORMAT:FORMATTED              ACCESS:SEQUENTIAL          

 OPENING multiple.dat
 FILE TYPE:MULT   UNIT   94   STATUS:OLD    
 FORMAT:FORMATTED              ACCESS:SEQUENTIAL          

 OPENING bcf6.dat
 FILE TYPE:BCF6   UNIT   11   STATUS:OLD    
 FORMAT:FORMATTED              ACCESS:SEQUENTIAL          

 OPENING sip.dat
 FILE TYPE:SIP   UNIT   19   STATUS:OLD    
 FORMAT:FORMATTED              ACCESS:SEQUENTIAL          

 OPENING wel6.dat
 FILE TYPE:WEL   UNIT   12   STATUS:OLD    
 FORMAT:FORMATTED              ACCESS:SEQUENTIAL          

 OPENING lmt6.dat
 FILE TYPE:LMT6   UNIT   66   STATUS:OLD    
 FORMAT:FORMATTED              ACCESS:SEQUENTIAL          

 OPENING oc.dat
 FILE TYPE:OC   UNIT   22   STATUS:OLD    
 FORMAT:FORMATTED              ACCESS:SEQUENTIAL          

 OPENING budget.dat
 FILE TYPE:DATA(BINARY)   UNIT   50   STATUS:UNKNOWN
 FORMAT:BINARY                 ACCESS:SEQUENTIAL          

 OPENING heads.dat
 FILE TYPE:DATA(BINARY)   UNIT   51   STATUS:UNKNOWN
 FORMAT:BINARY                 ACCESS:SEQUENTIAL          

 OPENING ddown.dat
 FILE TYPE:DATA(BINARY)   UNIT   52   STATUS:UNKNOWN
 FORMAT:BINARY                 ACCESS:SEQUENTIAL          

 BAS -- BASIC PACKAGE, VERSION 7, 5/2/2005 INPUT READ FROM UNIT    1
 
 MODFLOW was compiled using mixed precision
 Precision of REAL variables:           6
 Precision of DOUBLE PRECISION variables:          15

 DISCRETIZATION INPUT DATA READ FROM UNIT  105
 # Discretization file for MODFLOW-2000, generated by PMWIN
    1 LAYERS        51 ROWS        51 COLUMNS
    1 STRESS PERIOD(S) IN SIMULATION
 MODEL TIME UNIT IS SECONDS
 MODEL LENGTH UNIT IS UNDEFINED
  Confining bed flag for each layer:
   0



                               DELR
 READING ON UNIT  105 WITH FORMAT: (15G14.0)           



                               DELC
 READING ON UNIT  105 WITH FORMAT: (15G14.0)           



           TOP ELEVATION OF LAYER 1
 READING ON UNIT  105 WITH FORMAT: (15G14.0)           



             MODEL LAYER BOTTOM EL. FOR LAYER   1
 READING ON UNIT  105 WITH FORMAT: (15G14.0)           


 STRESS PERIOD     LENGTH       TIME STEPS     MULTIPLIER FOR DELT    SS FLAG
 ----------------------------------------------------------------------------
        1         50.00000         50                    1.000         TR

 TRANSIENT SIMULATION



 
 # Basic package file for MODFLOW-2000, generated by PMWIN                       
 THE FREE FORMAT OPTION HAS BEEN SELECTED

           BOUNDARY ARRAY =              1 FOR LAYER   1

 AQUIFER HEAD WILL BE SET TO  -999.99     AT ALL NO-FLOW NODES (IBOUND=0).



                       INITIAL HEAD FOR LAYER   1
 READING ON UNIT    1 WITH FORMAT: (15G14.0)           

 OUTPUT CONTROL IS SPECIFIED EVERY TIME STEP
 HEAD PRINT FORMAT CODE IS   0    DRAWDOWN PRINT FORMAT CODE IS   0
 HEADS WILL BE SAVED ON UNIT   51    DRAWDOWNS WILL BE SAVED ON UNIT   52

 ZONE OPTION, INPUT READ FROM UNIT   93
 # Zone file for MODFLOW-2000, generated by PMWIN
     0 ZONE ARRAYS

 MULTIPLIER OPTION, INPUT READ FROM UNIT   94
 # Multiplier file for MODFLOW-2000, generated by PMWIN
   0 MULTIPLIER ARRAYS

 BCF -- BLOCK-CENTERED FLOW PACKAGE, VERSION 7, 5/2/2005
         INPUT READ FROM UNIT 11
 TRANSIENT SIMULATION
 CELL-BY-CELL FLOWS WILL BE SAVED ON UNIT 50
 HEAD AT CELLS THAT CONVERT TO DRY= -0.10000E+31
 WETTING CAPABILITY IS NOT ACTIVE
      LAYER  LAYER-TYPE CODE     INTERBLOCK T
      --------------------------------------------
         1            1          0 -- HARMONIC    



           COLUMN TO ROW ANISOTROPY
 READING ON UNIT   11 WITH FORMAT: (1G14.0)            

     PRIMARY STORAGE COEF =  1.000000E-01 FOR LAYER   1



              HYD. COND. ALONG ROWS FOR LAYER   1
 READING ON UNIT   11 WITH FORMAT: (15G14.0)           

 WEL -- WELL PACKAGE, VERSION 7, 5/2/2005 INPUT READ FROM UNIT   12
 # WELL file for MODFLOW-2000 or higher, generated by PMWIN
 #
          1 Named Parameters            102 List entries
 MAXIMUM OF    102 ACTIVE WELLS AT ONE TIME
 CELL-BY-CELL FLOWS WILL BE SAVED ON UNIT   50


     1 Well parameters

 PARAMETER NAME:WEL_0_1      TYPE:Q   
 Parameter value from package file is:   1.00000    
   NUMBER OF ENTRIES:    102

 WELL NO.  LAYER   ROW   COL   STRESS FACTOR         
 ----------------------------------------------------
      1      1      1      1      0.3500E-01
      2      1      1     51     -0.4000E-01
      3      1      2      1      0.3500E-01
      4      1      2     51     -0.4000E-01
      5      1      3      1      0.3500E-01
      6      1      3     51     -0.4000E-01
      7      1      4      1      0.3500E-01
      8      1      4     51     -0.4000E-01
      9      1      5      1      0.3500E-01
     10      1      5     51     -0.4000E-01
     11      1      6      1      0.3500E-01
     12      1      6     51     -0.4000E-01
     13      1      7      1      0.3500E-01
     14      1      7     51     -0.4000E-01
     15      1      8      1      0.3500E-01
     16      1      8     51     -0.4000E-01
     17      1      9      1      0.3500E-01
     18      1      9     51     -0.4000E-01
     19      1     10      1      0.3500E-01
     20      1     10     51     -0.4000E-01
     21      1     11      1      0.3500E-01
     22      1     11     51     -0.4000E-01
     23      1     12      1      0.3500E-01
     24      1     12     51     -0.4000E-01
     25      1     13      1      0.3500E-01
     26      1     13     51     -0.4000E-01
     27      1     14      1      0.3500E-01
     28      1     14     51     -0.4000E-01
     29      1     15      1      0.3500E-01
     30      1     15     51     -0.4000E-01
     31      1     16      1      0.3500E-01
     32      1     16     51     -0.4000E-01
     33      1     17      1      0.3500E-01
     34      1     17     51     -0.4000E-01
     35      1     18      1      0.3500E-01
     36      1     18     51     -0.4000E-01
     37      1     19      1      0.3500E-01
     38      1     19     51     -0.4000E-01
     39      1     20      1      0.3500E-01
     40      1     20     51     -0.4000E-01
     41      1     21      1      0.3500E-01
     42      1     21     51     -0.4000E-01
     43      1     22      1      0.3500E-01
     44      1     22     51     -0.4000E-01
     45      1     23      1      0.3500E-01
     46      1     23     51     -0.4000E-01
     47      1     24      1      0.3500E-01
     48      1     24     51     -0.4000E-01
     49      1     25      1      0.3500E-01
     50      1     25     51     -0.4000E-01
     51      1     26      1      0.3500E-01
     52      1     26     51     -0.4000E-01
     53      1     27      1      0.3500E-01
     54      1     27     51     -0.4000E-01
     55      1     28      1      0.3500E-01
     56      1     28     51     -0.4000E-01
     57      1     29      1      0.3500E-01
     58      1     29     51     -0.4000E-01
     59      1     30      1      0.3500E-01
     60      1     30     51     -0.4000E-01
     61      1     31      1      0.3500E-01
     62      1     31     51     -0.4000E-01
     63      1     32      1      0.3500E-01
     64      1     32     51     -0.4000E-01
     65      1     33      1      0.3500E-01
     66      1     33     51     -0.4000E-01
     67      1     34      1      0.3500E-01
     68      1     34     51     -0.4000E-01
     69      1     35      1      0.3500E-01
     70      1     35     51     -0.4000E-01
     71      1     36      1      0.3500E-01
     72      1     36     51     -0.4000E-01
     73      1     37      1      0.3500E-01
     74      1     37     51     -0.4000E-01
     75      1     38      1      0.3500E-01
     76      1     38     51     -0.4000E-01
     77      1     39      1      0.3500E-01
     78      1     39     51     -0.4000E-01
     79      1     40      1      0.3500E-01
     80      1     40     51     -0.4000E-01
     81      1     41      1      0.3500E-01
     82      1     41     51     -0.4000E-01
     83      1     42      1      0.3500E-01
     84      1     42     51     -0.4000E-01
     85      1     43      1      0.3500E-01
     86      1     43     51     -0.4000E-01
     87      1     44      1      0.3500E-01
     88      1     44     51     -0.4000E-01
     89      1     45      1      0.3500E-01
     90      1     45     51     -0.4000E-01
     91      1     46      1      0.3500E-01
     92      1     46     51     -0.4000E-01
     93      1     47      1      0.3500E-01
     94      1     47     51     -0.4000E-01
     95      1     48      1      0.3500E-01
     96      1     48     51     -0.4000E-01
     97      1     49      1      0.3500E-01
     98      1     49     51     -0.4000E-01
     99      1     50      1      0.3500E-01
    100      1     50     51     -0.4000E-01
    101      1     51      1      0.3500E-01
    102      1     51     51     -0.4000E-01

 SIP -- STRONGLY-IMPLICIT PROCEDURE SOLUTION PACKAGE
                    VERSION 7, 5/2/2005 INPUT READ FROM UNIT   19
 MAXIMUM OF 200 ITERATIONS ALLOWED FOR CLOSURE
  5 ITERATION PARAMETERS

          SOLUTION BY THE STRONGLY IMPLICIT PROCEDURE
          -------------------------------------------
 MAXIMUM ITERATIONS ALLOWED FOR CLOSURE =      200
                 ACCELERATION PARAMETER =    1.00000    
      HEAD CHANGE CRITERION FOR CLOSURE =    0.10000E-02
      SIP HEAD CHANGE PRINTOUT INTERVAL =        1

     CALCULATE ITERATION PARAMETERS FROM MODEL CALCULATED WSEED


 ***Link-MT3DMS Package v7***
 OPENING LINK-MT3DMS OUTPUT FILE: MT3D.FLO                                                                                                                                                                                                
 ON UNIT NUMBER:   333
 FILE TYPE: UNFORMATTED
 HEADER OPTION: EXTENDED
 ***Link-MT3DMS Package v7***

1
                            STRESS PERIOD NO.    1, LENGTH =   50.00000    
                            -----------------------------------------------

                              NUMBER OF TIME STEPS =    50

                               MULTIPLIER FOR DELT =     1.000

                            INITIAL TIME STEP SIZE =  1.0000000    

 Parameter:  WEL_0_1
 WELL NO.  LAYER   ROW   COL   STRESS RATE         
 --------------------------------------------------
      1      1      1      1      0.3500E-01
      2      1      1     51     -0.4000E-01
      3      1      2      1      0.3500E-01
      4      1      2     51     -0.4000E-01
      5      1      3      1      0.3500E-01
      6      1      3     51     -0.4000E-01
      7      1      4      1      0.3500E-01
      8      1      4     51     -0.4000E-01
      9      1      5      1      0.3500E-01
     10      1      5     51     -0.4000E-01
     11      1      6      1      0.3500E-01
     12      1      6     51     -0.4000E-01
     13      1      7      1      0.3500E-01
     14      1      7     51     -0.4000E-01
     15      1      8      1      0.3500E-01
     16      1      8     51     -0.4000E-01
     17      1      9      1      0.3500E-01
     18      1      9     51     -0.4000E-01
     19      1     10      1      0.3500E-01
     20      1     10     51     -0.4000E-01
     21      1     11      1      0.3500E-01
     22      1     11     51     -0.4000E-01
     23      1     12      1      0.3500E-01
     24      1     12     51     -0.4000E-01
     25      1     13      1      0.3500E-01
     26      1     13     51     -0.4000E-01
     27      1     14      1      0.3500E-01
     28      1     14     51     -0.4000E-01
     29      1     15      1      0.3500E-01
     30      1     15     51     -0.4000E-01
     31      1     16      1      0.3500E-01
     32      1     16     51     -0.4000E-01
     33      1     17      1      0.3500E-01
     34      1     17     51     -0.4000E-01
     35      1     18      1      0.3500E-01
     36      1     18     51     -0.4000E-01
     37      1     19      1      0.3500E-01
     38      1     19     51     -0.4000E-01
     39      1     20      1      0.3500E-01
     40      1     20     51     -0.4000E-01
     41      1     21      1      0.3500E-01
     42      1     21     51     -0.4000E-01
     43      1     22      1      0.3500E-01
     44      1     22     51     -0.4000E-01
     45      1     23      1      0.3500E-01
     46      1     23     51     -0.4000E-01
     47      1     24      1      0.3500E-01
     48      1     24     51     -0.4000E-01
     49      1     25      1      0.3500E-01
     50      1     25     51     -0.4000E-01
     51      1     26      1      0.3500E-01
     52      1     26     51     -0.4000E-01
     53      1     27      1      0.3500E-01
     54      1     27     51     -0.4000E-01
     55      1     28      1      0.3500E-01
     56      1     28     51     -0.4000E-01
     57      1     29      1      0.3500E-01
     58      1     29     51     -0.4000E-01
     59      1     30      1      0.3500E-01
     60      1     30     51     -0.4000E-01
     61      1     31      1      0.3500E-01
     62      1     31     51     -0.4000E-01
     63      1     32      1      0.3500E-01
     64      1     32     51     -0.4000E-01
     65      1     33      1      0.3500E-01
     66      1     33     51     -0.4000E-01
     67      1     34      1      0.3500E-01
     68      1     34     51     -0.4000E-01
     69      1     35      1      0.3500E-01
     70      1     35     51     -0.4000E-01
     71      1     36      1      0.3500E-01
     72      1     36     51     -0.4000E-01
     73      1     37      1      0.3500E-01
     74      1     37     51     -0.4000E-01
     75      1     38      1      0.3500E-01
     76      1     38     51     -0.4000E-01
     77      1     39      1      0.3500E-01
     78      1     39     51     -0.4000E-01
     79      1     40      1      0.3500E-01
     80      1     40     51     -0.4000E-01
     81      1     41      1      0.3500E-01
     82      1     41     51     -0.4000E-01
     83      1     42      1      0.3500E-01
     84      1     42     51     -0.4000E-01
     85      1     43      1      0.3500E-01
     86      1     43     51     -0.4000E-01
     87      1     44      1      0.3500E-01
     88      1     44     51     -0.4000E-01
     89      1     45      1      0.3500E-01
     90      1     45     51     -0.4000E-01
     91      1     46      1      0.3500E-01
     92      1     46     51     -0.4000E-01
     93      1     47      1      0.3500E-01
     94      1     47     51     -0.4000E-01
     95      1     48      1      0.3500E-01
     96      1     48     51     -0.4000E-01
     97      1     49      1      0.3500E-01
     98      1     49     51     -0.4000E-01
     99      1     50      1      0.3500E-01
    100      1     50     51     -0.4000E-01
    101      1     51      1      0.3500E-01
    102      1     51     51     -0.4000E-01

    102 WELLS
 
 SOLVING FOR HEAD 

 AVERAGE SEED = 0.00092885
 MINIMUM SEED = 0.00054208

     5 ITERATION PARAMETERS CALCULATED FROM AVERAGE SEED:

  0.000000E+00 0.825423E+00 0.969523E+00 0.994679E+00 0.999071E+00

     6 ITERATIONS FOR TIME STEP   1 IN STRESS PERIOD    1

 MAXIMUM HEAD CHANGE FOR EACH ITERATION:

    HEAD CHANGE   HEAD CHANGE   HEAD CHANGE   HEAD CHANGE   HEAD CHANGE
  LAYER,ROW,COL LAYER,ROW,COL LAYER,ROW,COL LAYER,ROW,COL LAYER,ROW,COL
 ----------------------------------------------------------------------
      1.802       -0.1156       -0.2783E-01   -0.7859E-02    0.1141E-02
  (  1, 28,  1) (  1,  1, 51) (  1,  8, 48) (  1,  2, 51) (  1,  4, 50)
    -0.4864E-03
  (  1,  1, 50)


 HEAD/DRAWDOWN PRINTOUT FLAG = 1     TOTAL BUDGET PRINTOUT FLAG = 1
 CELL-BY-CELL FLOW TERM FLAG = 1

 OUTPUT FLAGS FOR EACH LAYER:
          HEAD    DRAWDOWN  HEAD  DRAWDOWN
 LAYER  PRINTOUT  PRINTOUT  SAVE    SAVE
 -----------------------------------------
    1       0         0       1       1
 UBUDSV SAVING "         STORAGE" ON UNIT 50 AT TIME STEP  1, STRESS PERIOD    1
 UBUDSV SAVING "   CONSTANT HEAD" ON UNIT 50 AT TIME STEP  1, STRESS PERIOD    1
 UBUDSV SAVING "FLOW RIGHT FACE " ON UNIT 50 AT TIME STEP  1, STRESS PERIOD    1
 UBUDSV SAVING "FLOW FRONT FACE " ON UNIT 50 AT TIME STEP  1, STRESS PERIOD    1
 UBUDSV SAVING "           WELLS" ON UNIT 50 AT TIME STEP  1, STRESS PERIOD    1

 SAVING SATURATED THICKNESS AND FLOW TERMS ON UNIT  333 FOR MT3DMS
 BY THE LINK-MT3DMS PACKAGE V7 AT TIME STEP    1, STRESS PERIOD    1


 HEAD WILL BE SAVED ON UNIT   51 AT END OF TIME STEP    1, STRESS PERIOD    1

 DRAWDOWN WILL BE SAVED ON UNIT   52 AT END OF TIME STEP    1, STRESS PERIOD    1
1
  VOLUMETRIC BUDGET FOR ENTIRE MODEL AT END OF TIME STEP    1, STRESS PERIOD   1
  ------------------------------------------------------------------------------

     CUMULATIVE VOLUMES      L**3       RATES FOR THIS TIME STEP      L**3/T
     ------------------                 ------------------------

           IN:                                      IN:
           ---                                      ---
             STORAGE =          11.2044               STORAGE =          11.2044
       CONSTANT HEAD =           0.0000         CONSTANT HEAD =           0.0000
               WELLS =           1.7850                 WELLS =           1.7850

            TOTAL IN =          12.9894              TOTAL IN =          12.9894

          OUT:                                     OUT:
          ----                                     ----
             STORAGE =          10.9496               STORAGE =          10.9496
       CONSTANT HEAD =           0.0000         CONSTANT HEAD =           0.0000
               WELLS =           2.0400                 WELLS =           2.0400

           TOTAL OUT =          12.9896             TOTAL OUT =          12.9896

            IN - OUT =      -2.0313E-04              IN - OUT =      -2.0313E-04

 PERCENT DISCREPANCY =          -0.00     PERCENT DISCREPANCY =          -0.00






         TIME SUMMARY AT END OF TIME STEP    1 IN STRESS PERIOD    1
                    SECONDS     MINUTES      HOURS       DAYS        YEARS
                    -----------------------------------------------------------
   TIME STEP LENGTH 1.00000     1.66667E-02 2.77778E-04 1.15741E-05 3.16881E-08
 STRESS PERIOD TIME 1.00000     1.66667E-02 2.77778E-04 1.15741E-05 3.16881E-08
         TOTAL TIME 1.00000     1.66667E-02 2.77778E-04 1.15741E-05 3.16881E-08
1
 
 SOLVING FOR HEAD 
     5 ITERATIONS FOR TIME STEP   2 IN STRESS PERIOD    1

 MAXIMUM HEAD CHANGE FOR EACH ITERATION:

    HEAD CHANGE   HEAD CHANGE   HEAD CHANGE   HEAD CHANGE   HEAD CHANGE
  LAYER,ROW,COL LAYER,ROW,COL LAYER,ROW,COL LAYER,ROW,COL LAYER,ROW,COL
 ----------------------------------------------------------------------
     0.6654        0.1176        0.1749E-01   -0.3064E-02    0.2478E-03
  (  1, 51,  1) (  1,  1,  2) (  1, 18,  1) (  1,  1, 50) (  1,  4, 49)


 HEAD/DRAWDOWN PRINTOUT FLAG = 1     TOTAL BUDGET PRINTOUT FLAG = 1
 CELL-BY-CELL FLOW TERM FLAG = 1

 OUTPUT FLAGS FOR EACH LAYER:
          HEAD    DRAWDOWN  HEAD  DRAWDOWN
 LAYER  PRINTOUT  PRINTOUT  SAVE    SAVE
 -----------------------------------------
    1       0         0       1       1
 UBUDSV SAVING "         STORAGE" ON UNIT 50 AT TIME STEP  2, STRESS PERIOD    1
 UBUDSV SAVING "   CONSTANT HEAD" ON UNIT 50 AT TIME STEP  2, STRESS PERIOD    1
 UBUDSV SAVING "FLOW RIGHT FACE " ON UNIT 50 AT TIME STEP  2, STRESS PERIOD    1
 UBUDSV SAVING "FLOW FRONT FACE " ON UNIT 50 AT TIME STEP  2, STRESS PERIOD    1
 UBUDSV SAVING "           WELLS" ON UNIT 50 AT TIME STEP  2, STRESS PERIOD    1

 SAVING SATURATED THICKNESS AND FLOW TERMS ON UNIT  333 FOR MT3DMS
 BY THE LINK-MT3DMS PACKAGE V7 AT TIME STEP    2, STRESS PERIOD    1


 HEAD WILL BE SAVED ON UNIT   51 AT END OF TIME STEP    2, STRESS PERIOD    1

 DRAWDOWN WILL BE SAVED ON UNIT   52 AT END OF TIME STEP    2, STRESS PERIOD    1
1
  VOLUMETRIC BUDGET FOR ENTIRE MODEL AT END OF TIME STEP    2, STRESS PERIOD   1
  ------------------------------------------------------------------------------

     CUMULATIVE VOLUMES      L**3       RATES FOR THIS TIME STEP      L**3/T
     ------------------                 ------------------------

           IN:                                      IN:
           ---                                      ---
             STORAGE =          15.3104               STORAGE =           4.1060
       CONSTANT HEAD =           0.0000         CONSTANT HEAD =           0.0000
               WELLS =           3.5700                 WELLS =           1.7850

            TOTAL IN =          18.8804              TOTAL IN =           5.8910

          OUT:                                     OUT:
          ----                                     ----
             STORAGE =          14.8006               STORAGE =           3.8510
       CONSTANT HEAD =           0.0000         CONSTANT HEAD =           0.0000
               WELLS =           4.0800                 WELLS =           2.0400

           TOTAL OUT =          18.8806             TOTAL OUT =           5.8910

            IN - OUT =      -1.9264E-04              IN - OUT =       1.0967E-05

 PERCENT DISCREPANCY =          -0.00     PERCENT DISCREPANCY =           0.00






         TIME SUMMARY AT END OF TIME STEP    2 IN STRESS PERIOD    1
                    SECONDS     MINUTES      HOURS       DAYS        YEARS
                    -----------------------------------------------------------
   TIME STEP LENGTH 1.00000     1.66667E-02 2.77778E-04 1.15741E-05 3.16881E-08
 STRESS PERIOD TIME  2.0000     3.33333E-02 5.55556E-04 2.31481E-05 6.33762E-08
         TOTAL TIME  2.0000     3.33333E-02 5.55556E-04 2.31481E-05 6.33762E-08
1
 
 SOLVING FOR HEAD 
     5 ITERATIONS FOR TIME STEP   3 IN STRESS PERIOD    1

 MAXIMUM HEAD CHANGE FOR EACH ITERATION:

    HEAD CHANGE   HEAD CHANGE   HEAD CHANGE   HEAD CHANGE   HEAD CHANGE
  LAYER,ROW,COL LAYER,ROW,COL LAYER,ROW,COL LAYER,ROW,COL LAYER,ROW,COL
 ----------------------------------------------------------------------
     0.3451        0.7820E-01    0.1665E-01   -0.2013E-02   -0.1092E-03
  (  1, 51,  1) (  1,  1,  2) (  1, 15,  1) (  1,  1, 50) (  1,  1,  1)


 HEAD/DRAWDOWN PRINTOUT FLAG = 1     TOTAL BUDGET PRINTOUT FLAG = 1
 CELL-BY-CELL FLOW TERM FLAG = 1

 OUTPUT FLAGS FOR EACH LAYER:
          HEAD    DRAWDOWN  HEAD  DRAWDOWN
 LAYER  PRINTOUT  PRINTOUT  SAVE    SAVE
 -----------------------------------------
    1       0         0       1       1
 UBUDSV SAVING "         STORAGE" ON UNIT 50 AT TIME STEP  3, STRESS PERIOD    1
 UBUDSV SAVING "   CONSTANT HEAD" ON UNIT 50 AT TIME STEP  3, STRESS PERIOD    1
 UBUDSV SAVING "FLOW RIGHT FACE " ON UNIT 50 AT TIME STEP  3, STRESS PERIOD    1
 UBUDSV SAVING "FLOW FRONT FACE " ON UNIT 50 AT TIME STEP  3, STRESS PERIOD    1
 UBUDSV SAVING "           WELLS" ON UNIT 50 AT TIME STEP  3, STRESS PERIOD    1

 SAVING SATURATED THICKNESS AND FLOW TERMS ON UNIT  333 FOR MT3DMS
 BY THE LINK-MT3DMS PACKAGE V7 AT TIME STEP    3, STRESS PERIOD    1


 HEAD WILL BE SAVED ON UNIT   51 AT END OF TIME STEP    3, STRESS PERIOD    1

 DRAWDOWN WILL BE SAVED ON UNIT   52 AT END OF TIME STEP    3, STRESS PERIOD    1
1
  VOLUMETRIC BUDGET FOR ENTIRE MODEL AT END OF TIME STEP    3, STRESS PERIOD   1
  ------------------------------------------------------------------------------

     CUMULATIVE VOLUMES      L**3       RATES FOR THIS TIME STEP      L**3/T
     ------------------                 ------------------------

           IN:                                      IN:
           ---                                      ---
             STORAGE =          18.2130               STORAGE =           2.9026
       CONSTANT HEAD =           0.0000         CONSTANT HEAD =           0.0000
               WELLS =           5.3550                 WELLS =           1.7850

            TOTAL IN =          23.5680              TOTAL IN =           4.6876

          OUT:                                     OUT:
          ----                                     ----
             STORAGE =          17.4482               STORAGE =           2.6475
       CONSTANT HEAD =           0.0000         CONSTANT HEAD =           0.0000
               WELLS =           6.1200                 WELLS =           2.0400

           TOTAL OUT =          23.5681             TOTAL OUT =           4.6875

            IN - OUT =      -1.2779E-04              IN - OUT =       6.3896E-05

 PERCENT DISCREPANCY =          -0.00     PERCENT DISCREPANCY =           0.00






         TIME SUMMARY AT END OF TIME STEP    3 IN STRESS PERIOD    1
                    SECONDS     MINUTES      HOURS       DAYS        YEARS
                    -----------------------------------------------------------
   TIME STEP LENGTH 1.00000     1.66667E-02 2.77778E-04 1.15741E-05 3.16881E-08
 STRESS PERIOD TIME  3.0000     5.00000E-02 8.33333E-04 3.47222E-05 9.50643E-08
         TOTAL TIME  3.0000     5.00000E-02 8.33333E-04 3.47222E-05 9.50643E-08
1
 
 SOLVING FOR HEAD 
     5 ITERATIONS FOR TIME STEP   4 IN STRESS PERIOD    1

 MAXIMUM HEAD CHANGE FOR EACH ITERATION:

    HEAD CHANGE   HEAD CHANGE   HEAD CHANGE   HEAD CHANGE   HEAD CHANGE
  LAYER,ROW,COL LAYER,ROW,COL LAYER,ROW,COL LAYER,ROW,COL LAYER,ROW,COL
 ----------------------------------------------------------------------
     0.2110        0.5736E-01    0.1440E-01   -0.1704E-02   -0.9599E-04
  (  1, 51,  1) (  1,  2,  2) (  1, 14,  1) (  1,  1, 51) (  1,  4,  1)


 HEAD/DRAWDOWN PRINTOUT FLAG = 1     TOTAL BUDGET PRINTOUT FLAG = 1
 CELL-BY-CELL FLOW TERM FLAG = 1

 OUTPUT FLAGS FOR EACH LAYER:
          HEAD    DRAWDOWN  HEAD  DRAWDOWN
 LAYER  PRINTOUT  PRINTOUT  SAVE    SAVE
 -----------------------------------------
    1       0         0       1       1
 UBUDSV SAVING "         STORAGE" ON UNIT 50 AT TIME STEP  4, STRESS PERIOD    1
 UBUDSV SAVING "   CONSTANT HEAD" ON UNIT 50 AT TIME STEP  4, STRESS PERIOD    1
 UBUDSV SAVING "FLOW RIGHT FACE " ON UNIT 50 AT TIME STEP  4, STRESS PERIOD    1
 UBUDSV SAVING "FLOW FRONT FACE " ON UNIT 50 AT TIME STEP  4, STRESS PERIOD    1
 UBUDSV SAVING "           WELLS" ON UNIT 50 AT TIME STEP  4, STRESS PERIOD    1

 SAVING SATURATED THICKNESS AND FLOW TERMS ON UNIT  333 FOR MT3DMS
 BY THE LINK-MT3DMS PACKAGE V7 AT TIME STEP    4, STRESS PERIOD    1


 HEAD WILL BE SAVED ON UNIT   51 AT END OF TIME STEP    4, STRESS PERIOD    1

 DRAWDOWN WILL BE SAVED ON UNIT   52 AT END OF TIME STEP    4, STRESS PERIOD    1
1
  VOLUMETRIC BUDGET FOR ENTIRE MODEL AT END OF TIME STEP    4, STRESS PERIOD   1
  ------------------------------------------------------------------------------

     CUMULATIVE VOLUMES      L**3       RATES FOR THIS TIME STEP      L**3/T
     ------------------                 ------------------------

           IN:                                      IN:
           ---                                      ---
             STORAGE =          20.7663               STORAGE =           2.5532
       CONSTANT HEAD =           0.0000         CONSTANT HEAD =           0.0000
               WELLS =           7.1400                 WELLS =           1.7850

            TOTAL IN =          27.9063              TOTAL IN =           4.3382

          OUT:                                     OUT:
          ----                                     ----
             STORAGE =          19.7463               STORAGE =           2.2982
       CONSTANT HEAD =           0.0000         CONSTANT HEAD =           0.0000
               WELLS =           8.1600                 WELLS =           2.0400

           TOTAL OUT =          27.9063             TOTAL OUT =           4.3382

            IN - OUT =      -7.0572E-05              IN - OUT =       6.0081E-05

 PERCENT DISCREPANCY =          -0.00     PERCENT DISCREPANCY =           0.00






         TIME SUMMARY AT END OF TIME STEP    4 IN STRESS PERIOD    1
                    SECONDS     MINUTES      HOURS       DAYS        YEARS
                    -----------------------------------------------------------
   TIME STEP LENGTH 1.00000     1.66667E-02 2.77778E-04 1.15741E-05 3.16881E-08
 STRESS PERIOD TIME  4.0000     6.66667E-02 1.11111E-03 4.62963E-05 1.26752E-07
         TOTAL TIME  4.0000     6.66667E-02 1.11111E-03 4.62963E-05 1.26752E-07
1
 
 SOLVING FOR HEAD 
     5 ITERATIONS FOR TIME STEP   5 IN STRESS PERIOD    1

 MAXIMUM HEAD CHANGE FOR EACH ITERATION:

    HEAD CHANGE   HEAD CHANGE   HEAD CHANGE   HEAD CHANGE   HEAD CHANGE
  LAYER,ROW,COL LAYER,ROW,COL LAYER,ROW,COL LAYER,ROW,COL LAYER,ROW,COL
 ----------------------------------------------------------------------
     0.1471        0.4642E-01    0.1249E-01   -0.1566E-02   -0.8306E-04
  (  1, 51,  1) (  1, 29,  2) (  1, 13,  1) (  1, 33, 48) (  1,  4,  1)


 HEAD/DRAWDOWN PRINTOUT FLAG = 1     TOTAL BUDGET PRINTOUT FLAG = 1
 CELL-BY-CELL FLOW TERM FLAG = 1

 OUTPUT FLAGS FOR EACH LAYER:
          HEAD    DRAWDOWN  HEAD  DRAWDOWN
 LAYER  PRINTOUT  PRINTOUT  SAVE    SAVE
 -----------------------------------------
    1       0         0       1       1
 UBUDSV SAVING "         STORAGE" ON UNIT 50 AT TIME STEP  5, STRESS PERIOD    1
 UBUDSV SAVING "   CONSTANT HEAD" ON UNIT 50 AT TIME STEP  5, STRESS PERIOD    1
 UBUDSV SAVING "FLOW RIGHT FACE " ON UNIT 50 AT TIME STEP  5, STRESS PERIOD    1
 UBUDSV SAVING "FLOW FRONT FACE " ON UNIT 50 AT TIME STEP  5, STRESS PERIOD    1
 UBUDSV SAVING "           WELLS" ON UNIT 50 AT TIME STEP  5, STRESS PERIOD    1

 SAVING SATURATED THICKNESS AND FLOW TERMS ON UNIT  333 FOR MT3DMS
 BY THE LINK-MT3DMS PACKAGE V7 AT TIME STEP    5, STRESS PERIOD    1


 HEAD WILL BE SAVED ON UNIT   51 AT END OF TIME STEP    5, STRESS PERIOD    1

 DRAWDOWN WILL BE SAVED ON UNIT   52 AT END OF TIME STEP    5, STRESS PERIOD    1
1
  VOLUMETRIC BUDGET FOR ENTIRE MODEL AT END OF TIME STEP    5, STRESS PERIOD   1
  ------------------------------------------------------------------------------

     CUMULATIVE VOLUMES      L**3       RATES FOR THIS TIME STEP      L**3/T
     ------------------                 ------------------------

           IN:                                      IN:
           ---                                      ---
             STORAGE =          23.1353               STORAGE =           2.3690
       CONSTANT HEAD =           0.0000         CONSTANT HEAD =           0.0000
               WELLS =           8.9250                 WELLS =           1.7850

            TOTAL IN =          32.0603              TOTAL IN =           4.1540

          OUT:                                     OUT:
          ----                                     ----
             STORAGE =          21.8603               STORAGE =           2.1140
       CONSTANT HEAD =           0.0000         CONSTANT HEAD =           0.0000
               WELLS =          10.2000                 WELLS =           2.0400

           TOTAL OUT =          32.0603             TOTAL OUT =           4.1540

            IN - OUT =      -2.2888E-05              IN - OUT =       4.9591E-05

 PERCENT DISCREPANCY =          -0.00     PERCENT DISCREPANCY =           0.00






         TIME SUMMARY AT END OF TIME STEP    5 IN STRESS PERIOD    1
                    SECONDS     MINUTES      HOURS       DAYS        YEARS
                    -----------------------------------------------------------
   TIME STEP LENGTH 1.00000     1.66667E-02 2.77778E-04 1.15741E-05 3.16881E-08
 STRESS PERIOD TIME  5.0000     8.33333E-02 1.38889E-03 5.78704E-05 1.58440E-07
         TOTAL TIME  5.0000     8.33333E-02 1.38889E-03 5.78704E-05 1.58440E-07
1
 
 SOLVING FOR HEAD 
     5 ITERATIONS FOR TIME STEP   6 IN STRESS PERIOD    1

 MAXIMUM HEAD CHANGE FOR EACH ITERATION:

    HEAD CHANGE   HEAD CHANGE   HEAD CHANGE   HEAD CHANGE   HEAD CHANGE
  LAYER,ROW,COL LAYER,ROW,COL LAYER,ROW,COL LAYER,ROW,COL LAYER,ROW,COL
 ----------------------------------------------------------------------
     0.1122        0.3956E-01    0.1101E-01   -0.1491E-02   -0.7600E-04
  (  1, 51,  1) (  1, 29,  2) (  1, 12,  2) (  1, 34, 48) (  1, 51, 51)


 HEAD/DRAWDOWN PRINTOUT FLAG = 1     TOTAL BUDGET PRINTOUT FLAG = 1
 CELL-BY-CELL FLOW TERM FLAG = 1

 OUTPUT FLAGS FOR EACH LAYER:
          HEAD    DRAWDOWN  HEAD  DRAWDOWN
 LAYER  PRINTOUT  PRINTOUT  SAVE    SAVE
 -----------------------------------------
    1       0         0       1       1
 UBUDSV SAVING "         STORAGE" ON UNIT 50 AT TIME STEP  6, STRESS PERIOD    1
 UBUDSV SAVING "   CONSTANT HEAD" ON UNIT 50 AT TIME STEP  6, STRESS PERIOD    1
 UBUDSV SAVING "FLOW RIGHT FACE " ON UNIT 50 AT TIME STEP  6, STRESS PERIOD    1
 UBUDSV SAVING "FLOW FRONT FACE " ON UNIT 50 AT TIME STEP  6, STRESS PERIOD    1
 UBUDSV SAVING "           WELLS" ON UNIT 50 AT TIME STEP  6, STRESS PERIOD    1

 SAVING SATURATED THICKNESS AND FLOW TERMS ON UNIT  333 FOR MT3DMS
 BY THE LINK-MT3DMS PACKAGE V7 AT TIME STEP    6, STRESS PERIOD    1


 HEAD WILL BE SAVED ON UNIT   51 AT END OF TIME STEP    6, STRESS PERIOD    1

 DRAWDOWN WILL BE SAVED ON UNIT   52 AT END OF TIME STEP    6, STRESS PERIOD    1
1
  VOLUMETRIC BUDGET FOR ENTIRE MODEL AT END OF TIME STEP    6, STRESS PERIOD   1
  ------------------------------------------------------------------------------

     CUMULATIVE VOLUMES      L**3       RATES FOR THIS TIME STEP      L**3/T
     ------------------                 ------------------------

           IN:                                      IN:
           ---                                      ---
             STORAGE =          25.4016               STORAGE =           2.2663
       CONSTANT HEAD =           0.0000         CONSTANT HEAD =           0.0000
               WELLS =          10.7100                 WELLS =           1.7850

            TOTAL IN =          36.1116              TOTAL IN =           4.0513

          OUT:                                     OUT:
          ----                                     ----
             STORAGE =          23.8715               STORAGE =           2.0112
       CONSTANT HEAD =           0.0000         CONSTANT HEAD =           0.0000
               WELLS =          12.2400                 WELLS =           2.0400

           TOTAL OUT =          36.1115             TOTAL OUT =           4.0512

            IN - OUT =       2.6703E-05              IN - OUT =       4.6253E-05

 PERCENT DISCREPANCY =           0.00     PERCENT DISCREPANCY =           0.00






         TIME SUMMARY AT END OF TIME STEP    6 IN STRESS PERIOD    1
                    SECONDS     MINUTES      HOURS       DAYS        YEARS
                    -----------------------------------------------------------
   TIME STEP LENGTH 1.00000     1.66667E-02 2.77778E-04 1.15741E-05 3.16881E-08
 STRESS PERIOD TIME  6.0000     1.00000E-01 1.66667E-03 6.94444E-05 1.90129E-07
         TOTAL TIME  6.0000     1.00000E-01 1.66667E-03 6.94444E-05 1.90129E-07
1
 
 SOLVING FOR HEAD 
     5 ITERATIONS FOR TIME STEP   7 IN STRESS PERIOD    1

 MAXIMUM HEAD CHANGE FOR EACH ITERATION:

    HEAD CHANGE   HEAD CHANGE   HEAD CHANGE   HEAD CHANGE   HEAD CHANGE
  LAYER,ROW,COL LAYER,ROW,COL LAYER,ROW,COL LAYER,ROW,COL LAYER,ROW,COL
 ----------------------------------------------------------------------
     0.9094E-01    0.3456E-01    0.9970E-02   -0.1429E-02   -0.7335E-04
  (  1, 51,  1) (  1, 29,  2) (  1, 11,  2) (  1, 34, 48) (  1, 51, 51)


 HEAD/DRAWDOWN PRINTOUT FLAG = 1     TOTAL BUDGET PRINTOUT FLAG = 1
 CELL-BY-CELL FLOW TERM FLAG = 1

 OUTPUT FLAGS FOR EACH LAYER:
          HEAD    DRAWDOWN  HEAD  DRAWDOWN
 LAYER  PRINTOUT  PRINTOUT  SAVE    SAVE
 -----------------------------------------
    1       0         0       1       1
 UBUDSV SAVING "         STORAGE" ON UNIT 50 AT TIME STEP  7, STRESS PERIOD    1
 UBUDSV SAVING "   CONSTANT HEAD" ON UNIT 50 AT TIME STEP  7, STRESS PERIOD    1
 UBUDSV SAVING "FLOW RIGHT FACE " ON UNIT 50 AT TIME STEP  7, STRESS PERIOD    1
 UBUDSV SAVING "FLOW FRONT FACE " ON UNIT 50 AT TIME STEP  7, STRESS PERIOD    1
 UBUDSV SAVING "           WELLS" ON UNIT 50 AT TIME STEP  7, STRESS PERIOD    1

 SAVING SATURATED THICKNESS AND FLOW TERMS ON UNIT  333 FOR MT3DMS
 BY THE LINK-MT3DMS PACKAGE V7 AT TIME STEP    7, STRESS PERIOD    1


 HEAD WILL BE SAVED ON UNIT   51 AT END OF TIME STEP    7, STRESS PERIOD    1

 DRAWDOWN WILL BE SAVED ON UNIT   52 AT END OF TIME STEP    7, STRESS PERIOD    1
1
  VOLUMETRIC BUDGET FOR ENTIRE MODEL AT END OF TIME STEP    7, STRESS PERIOD   1
  ------------------------------------------------------------------------------

     CUMULATIVE VOLUMES      L**3       RATES FOR THIS TIME STEP      L**3/T
     ------------------                 ------------------------

           IN:                                      IN:
           ---                                      ---
             STORAGE =          27.6018               STORAGE =           2.2003
       CONSTANT HEAD =           0.0000         CONSTANT HEAD =           0.0000
               WELLS =          12.4950                 WELLS =           1.7850

            TOTAL IN =          40.0968              TOTAL IN =           3.9853

          OUT:                                     OUT:
          ----                                     ----
             STORAGE =          25.8168               STORAGE =           1.9452
       CONSTANT HEAD =           0.0000         CONSTANT HEAD =           0.0000
               WELLS =          14.2800                 WELLS =           2.0400

           TOTAL OUT =          40.0968             TOTAL OUT =           3.9852

            IN - OUT =       6.8665E-05              IN - OUT =       4.1962E-05

 PERCENT DISCREPANCY =           0.00     PERCENT DISCREPANCY =           0.00






         TIME SUMMARY AT END OF TIME STEP    7 IN STRESS PERIOD    1
                    SECONDS     MINUTES      HOURS       DAYS        YEARS
                    -----------------------------------------------------------
   TIME STEP LENGTH 1.00000     1.66667E-02 2.77778E-04 1.15741E-05 3.16881E-08
 STRESS PERIOD TIME  7.0000     0.11667     1.94444E-03 8.10185E-05 2.21817E-07
         TOTAL TIME  7.0000     0.11667     1.94444E-03 8.10185E-05 2.21817E-07
1
 
 SOLVING FOR HEAD 
     5 ITERATIONS FOR TIME STEP   8 IN STRESS PERIOD    1

 MAXIMUM HEAD CHANGE FOR EACH ITERATION:

    HEAD CHANGE   HEAD CHANGE   HEAD CHANGE   HEAD CHANGE   HEAD CHANGE
  LAYER,ROW,COL LAYER,ROW,COL LAYER,ROW,COL LAYER,ROW,COL LAYER,ROW,COL
 ----------------------------------------------------------------------
     0.7681E-01    0.3079E-01    0.9129E-02   -0.1374E-02   -0.7108E-04
  (  1, 51,  1) (  1, 29,  2) (  1, 10,  2) (  1, 34, 48) (  1, 51, 51)


 HEAD/DRAWDOWN PRINTOUT FLAG = 1     TOTAL BUDGET PRINTOUT FLAG = 1
 CELL-BY-CELL FLOW TERM FLAG = 1

 OUTPUT FLAGS FOR EACH LAYER:
          HEAD    DRAWDOWN  HEAD  DRAWDOWN
 LAYER  PRINTOUT  PRINTOUT  SAVE    SAVE
 -----------------------------------------
    1       0         0       1       1
 UBUDSV SAVING "         STORAGE" ON UNIT 50 AT TIME STEP  8, STRESS PERIOD    1
 UBUDSV SAVING "   CONSTANT HEAD" ON UNIT 50 AT TIME STEP  8, STRESS PERIOD    1
 UBUDSV SAVING "FLOW RIGHT FACE " ON UNIT 50 AT TIME STEP  8, STRESS PERIOD    1
 UBUDSV SAVING "FLOW FRONT FACE " ON UNIT 50 AT TIME STEP  8, STRESS PERIOD    1
 UBUDSV SAVING "           WELLS" ON UNIT 50 AT TIME STEP  8, STRESS PERIOD    1

 SAVING SATURATED THICKNESS AND FLOW TERMS ON UNIT  333 FOR MT3DMS
 BY THE LINK-MT3DMS PACKAGE V7 AT TIME STEP    8, STRESS PERIOD    1


 HEAD WILL BE SAVED ON UNIT   51 AT END OF TIME STEP    8, STRESS PERIOD    1

 DRAWDOWN WILL BE SAVED ON UNIT   52 AT END OF TIME STEP    8, STRESS PERIOD    1
1
  VOLUMETRIC BUDGET FOR ENTIRE MODEL AT END OF TIME STEP    8, STRESS PERIOD   1
  ------------------------------------------------------------------------------

     CUMULATIVE VOLUMES      L**3       RATES FOR THIS TIME STEP      L**3/T
     ------------------                 ------------------------

           IN:                                      IN:
           ---                                      ---
             STORAGE =          29.7581               STORAGE =           2.1563
       CONSTANT HEAD =           0.0000         CONSTANT HEAD =           0.0000
               WELLS =          14.2800                 WELLS =           1.7850

            TOTAL IN =          44.0381              TOTAL IN =           3.9413

          OUT:                                     OUT:
          ----                                     ----
             STORAGE =          27.7180               STORAGE =           1.9012
       CONSTANT HEAD =           0.0000         CONSTANT HEAD =           0.0000
               WELLS =          16.3200                 WELLS =           2.0400

           TOTAL OUT =          44.0380             TOTAL OUT =           3.9412

            IN - OUT =       1.0300E-04              IN - OUT =       3.6240E-05

 PERCENT DISCREPANCY =           0.00     PERCENT DISCREPANCY =           0.00






         TIME SUMMARY AT END OF TIME STEP    8 IN STRESS PERIOD    1
                    SECONDS     MINUTES      HOURS       DAYS        YEARS
                    -----------------------------------------------------------
   TIME STEP LENGTH 1.00000     1.66667E-02 2.77778E-04 1.15741E-05 3.16881E-08
 STRESS PERIOD TIME  8.0000     0.13333     2.22222E-03 9.25926E-05 2.53505E-07
         TOTAL TIME  8.0000     0.13333     2.22222E-03 9.25926E-05 2.53505E-07
1
 
 SOLVING FOR HEAD 
     5 ITERATIONS FOR TIME STEP   9 IN STRESS PERIOD    1

 MAXIMUM HEAD CHANGE FOR EACH ITERATION:

    HEAD CHANGE   HEAD CHANGE   HEAD CHANGE   HEAD CHANGE   HEAD CHANGE
  LAYER,ROW,COL LAYER,ROW,COL LAYER,ROW,COL LAYER,ROW,COL LAYER,ROW,COL
 ----------------------------------------------------------------------
     0.6679E-01    0.2787E-01    0.8465E-02   -0.1325E-02   -0.6911E-04
  (  1, 51,  1) (  1, 29,  2) (  1, 25,  2) (  1, 35, 48) (  1, 51, 51)


 HEAD/DRAWDOWN PRINTOUT FLAG = 1     TOTAL BUDGET PRINTOUT FLAG = 1
 CELL-BY-CELL FLOW TERM FLAG = 1

 OUTPUT FLAGS FOR EACH LAYER:
          HEAD    DRAWDOWN  HEAD  DRAWDOWN
 LAYER  PRINTOUT  PRINTOUT  SAVE    SAVE
 -----------------------------------------
    1       0         0       1       1
 UBUDSV SAVING "         STORAGE" ON UNIT 50 AT TIME STEP  9, STRESS PERIOD    1
 UBUDSV SAVING "   CONSTANT HEAD" ON UNIT 50 AT TIME STEP  9, STRESS PERIOD    1
 UBUDSV SAVING "FLOW RIGHT FACE " ON UNIT 50 AT TIME STEP  9, STRESS PERIOD    1
 UBUDSV SAVING "FLOW FRONT FACE " ON UNIT 50 AT TIME STEP  9, STRESS PERIOD    1
 UBUDSV SAVING "           WELLS" ON UNIT 50 AT TIME STEP  9, STRESS PERIOD    1

 SAVING SATURATED THICKNESS AND FLOW TERMS ON UNIT  333 FOR MT3DMS
 BY THE LINK-MT3DMS PACKAGE V7 AT TIME STEP    9, STRESS PERIOD    1


 HEAD WILL BE SAVED ON UNIT   51 AT END OF TIME STEP    9, STRESS PERIOD    1

 DRAWDOWN WILL BE SAVED ON UNIT   52 AT END OF TIME STEP    9, STRESS PERIOD    1
1
  VOLUMETRIC BUDGET FOR ENTIRE MODEL AT END OF TIME STEP    9, STRESS PERIOD   1
  ------------------------------------------------------------------------------

     CUMULATIVE VOLUMES      L**3       RATES FOR THIS TIME STEP      L**3/T
     ------------------                 ------------------------

           IN:                                      IN:
           ---                                      ---
             STORAGE =          31.8848               STORAGE =           2.1267
       CONSTANT HEAD =           0.0000         CONSTANT HEAD =           0.0000
               WELLS =          16.0650                 WELLS =           1.7850

            TOTAL IN =          47.9498              TOTAL IN =           3.9117

          OUT:                                     OUT:
          ----                                     ----
             STORAGE =          29.5897               STORAGE =           1.8717
       CONSTANT HEAD =           0.0000         CONSTANT HEAD =           0.0000
               WELLS =          18.3600                 WELLS =           2.0400

           TOTAL OUT =          47.9497             TOTAL OUT =           3.9117

            IN - OUT =       1.4496E-04              IN - OUT =       3.7193E-05

 PERCENT DISCREPANCY =           0.00     PERCENT DISCREPANCY =           0.00






         TIME SUMMARY AT END OF TIME STEP    9 IN STRESS PERIOD    1
                    SECONDS     MINUTES      HOURS       DAYS        YEARS
                    -----------------------------------------------------------
   TIME STEP LENGTH 1.00000     1.66667E-02 2.77778E-04 1.15741E-05 3.16881E-08
 STRESS PERIOD TIME  9.0000     0.15000     2.50000E-03 1.04167E-04 2.85193E-07
         TOTAL TIME  9.0000     0.15000     2.50000E-03 1.04167E-04 2.85193E-07
1
 
 SOLVING FOR HEAD 
     5 ITERATIONS FOR TIME STEP  10 IN STRESS PERIOD    1

 MAXIMUM HEAD CHANGE FOR EACH ITERATION:

    HEAD CHANGE   HEAD CHANGE   HEAD CHANGE   HEAD CHANGE   HEAD CHANGE
  LAYER,ROW,COL LAYER,ROW,COL LAYER,ROW,COL LAYER,ROW,COL LAYER,ROW,COL
 ----------------------------------------------------------------------
     0.5932E-01    0.2554E-01    0.7929E-02   -0.1280E-02   -0.6733E-04
  (  1, 51,  1) (  1, 29,  2) (  1, 25,  2) (  1, 35, 48) (  1, 51, 51)


 HEAD/DRAWDOWN PRINTOUT FLAG = 1     TOTAL BUDGET PRINTOUT FLAG = 1
 CELL-BY-CELL FLOW TERM FLAG = 1

 OUTPUT FLAGS FOR EACH LAYER:
          HEAD    DRAWDOWN  HEAD  DRAWDOWN
 LAYER  PRINTOUT  PRINTOUT  SAVE    SAVE
 -----------------------------------------
    1       0         0       1       1
 UBUDSV SAVING "         STORAGE" ON UNIT 50 AT TIME STEP 10, STRESS PERIOD    1
 UBUDSV SAVING "   CONSTANT HEAD" ON UNIT 50 AT TIME STEP 10, STRESS PERIOD    1
 UBUDSV SAVING "FLOW RIGHT FACE " ON UNIT 50 AT TIME STEP 10, STRESS PERIOD    1
 UBUDSV SAVING "FLOW FRONT FACE " ON UNIT 50 AT TIME STEP 10, STRESS PERIOD    1
 UBUDSV SAVING "           WELLS" ON UNIT 50 AT TIME STEP 10, STRESS PERIOD    1

 SAVING SATURATED THICKNESS AND FLOW TERMS ON UNIT  333 FOR MT3DMS
 BY THE LINK-MT3DMS PACKAGE V7 AT TIME STEP   10, STRESS PERIOD    1


 HEAD WILL BE SAVED ON UNIT   51 AT END OF TIME STEP   10, STRESS PERIOD    1

 DRAWDOWN WILL BE SAVED ON UNIT   52 AT END OF TIME STEP   10, STRESS PERIOD    1
1
  VOLUMETRIC BUDGET FOR ENTIRE MODEL AT END OF TIME STEP   10, STRESS PERIOD   1
  ------------------------------------------------------------------------------

     CUMULATIVE VOLUMES      L**3       RATES FOR THIS TIME STEP      L**3/T
     ------------------                 ------------------------

           IN:                                      IN:
           ---                                      ---
             STORAGE =          33.9901               STORAGE =           2.1053
       CONSTANT HEAD =           0.0000         CONSTANT HEAD =           0.0000
               WELLS =          17.8500                 WELLS =           1.7850

            TOTAL IN =          51.8401              TOTAL IN =           3.8903

          OUT:                                     OUT:
          ----                                     ----
             STORAGE =          31.4399               STORAGE =           1.8502
       CONSTANT HEAD =           0.0000         CONSTANT HEAD =           0.0000
               WELLS =          20.4000                 WELLS =           2.0400

           TOTAL OUT =          51.8399             TOTAL OUT =           3.8902

            IN - OUT =       1.7548E-04              IN - OUT =       3.3379E-05

 PERCENT DISCREPANCY =           0.00     PERCENT DISCREPANCY =           0.00






         TIME SUMMARY AT END OF TIME STEP   10 IN STRESS PERIOD    1
                    SECONDS     MINUTES      HOURS       DAYS        YEARS
                    -----------------------------------------------------------
   TIME STEP LENGTH 1.00000     1.66667E-02 2.77778E-04 1.15741E-05 3.16881E-08
 STRESS PERIOD TIME 10.0000     0.16667     2.77778E-03 1.15741E-04 3.16881E-07
         TOTAL TIME 10.0000     0.16667     2.77778E-03 1.15741E-04 3.16881E-07
1
 
 SOLVING FOR HEAD 
     5 ITERATIONS FOR TIME STEP  11 IN STRESS PERIOD    1

 MAXIMUM HEAD CHANGE FOR EACH ITERATION:

    HEAD CHANGE   HEAD CHANGE   HEAD CHANGE   HEAD CHANGE   HEAD CHANGE
  LAYER,ROW,COL LAYER,ROW,COL LAYER,ROW,COL LAYER,ROW,COL LAYER,ROW,COL
 ----------------------------------------------------------------------
     0.5354E-01    0.2364E-01    0.7482E-02   -0.1239E-02   -0.6571E-04
  (  1, 51,  1) (  1, 29,  2) (  1, 26,  2) (  1, 36, 48) (  1, 51, 51)


 HEAD/DRAWDOWN PRINTOUT FLAG = 1     TOTAL BUDGET PRINTOUT FLAG = 1
 CELL-BY-CELL FLOW TERM FLAG = 1

 OUTPUT FLAGS FOR EACH LAYER:
          HEAD    DRAWDOWN  HEAD  DRAWDOWN
 LAYER  PRINTOUT  PRINTOUT  SAVE    SAVE
 -----------------------------------------
    1       0         0       1       1
 UBUDSV SAVING "         STORAGE" ON UNIT 50 AT TIME STEP 11, STRESS PERIOD    1
 UBUDSV SAVING "   CONSTANT HEAD" ON UNIT 50 AT TIME STEP 11, STRESS PERIOD    1
 UBUDSV SAVING "FLOW RIGHT FACE " ON UNIT 50 AT TIME STEP 11, STRESS PERIOD    1
 UBUDSV SAVING "FLOW FRONT FACE " ON UNIT 50 AT TIME STEP 11, STRESS PERIOD    1
 UBUDSV SAVING "           WELLS" ON UNIT 50 AT TIME STEP 11, STRESS PERIOD    1

 SAVING SATURATED THICKNESS AND FLOW TERMS ON UNIT  333 FOR MT3DMS
 BY THE LINK-MT3DMS PACKAGE V7 AT TIME STEP   11, STRESS PERIOD    1


 HEAD WILL BE SAVED ON UNIT   51 AT END OF TIME STEP   11, STRESS PERIOD    1

 DRAWDOWN WILL BE SAVED ON UNIT   52 AT END OF TIME STEP   11, STRESS PERIOD    1
1
  VOLUMETRIC BUDGET FOR ENTIRE MODEL AT END OF TIME STEP   11, STRESS PERIOD   1
  ------------------------------------------------------------------------------

     CUMULATIVE VOLUMES      L**3       RATES FOR THIS TIME STEP      L**3/T
     ------------------                 ------------------------

           IN:                                      IN:
           ---                                      ---
             STORAGE =          36.0793               STORAGE =           2.0892
       CONSTANT HEAD =           0.0000         CONSTANT HEAD =           0.0000
               WELLS =          19.6350                 WELLS =           1.7850

            TOTAL IN =          55.7143              TOTAL IN =           3.8742

          OUT:                                     OUT:
          ----                                     ----
             STORAGE =          33.2741               STORAGE =           1.8341
       CONSTANT HEAD =           0.0000         CONSTANT HEAD =           0.0000
               WELLS =          22.4400                 WELLS =           2.0400

           TOTAL OUT =          55.7141             TOTAL OUT =           3.8741

            IN - OUT =       2.0981E-04              IN - OUT =       3.3855E-05

 PERCENT DISCREPANCY =           0.00     PERCENT DISCREPANCY =           0.00






         TIME SUMMARY AT END OF TIME STEP   11 IN STRESS PERIOD    1
                    SECONDS     MINUTES      HOURS       DAYS        YEARS
                    -----------------------------------------------------------
   TIME STEP LENGTH 1.00000     1.66667E-02 2.77778E-04 1.15741E-05 3.16881E-08
 STRESS PERIOD TIME  11.000     0.18333     3.05556E-03 1.27315E-04 3.48569E-07
         TOTAL TIME  11.000     0.18333     3.05556E-03 1.27315E-04 3.48569E-07
1
 
 SOLVING FOR HEAD 
     5 ITERATIONS FOR TIME STEP  12 IN STRESS PERIOD    1

 MAXIMUM HEAD CHANGE FOR EACH ITERATION:

    HEAD CHANGE   HEAD CHANGE   HEAD CHANGE   HEAD CHANGE   HEAD CHANGE
  LAYER,ROW,COL LAYER,ROW,COL LAYER,ROW,COL LAYER,ROW,COL LAYER,ROW,COL
 ----------------------------------------------------------------------
     0.4893E-01    0.2206E-01    0.7101E-02   -0.1202E-02   -0.6423E-04
  (  1, 51,  1) (  1, 29,  2) (  1, 26,  2) (  1, 36, 47) (  1, 51, 51)


 HEAD/DRAWDOWN PRINTOUT FLAG = 1     TOTAL BUDGET PRINTOUT FLAG = 1
 CELL-BY-CELL FLOW TERM FLAG = 1

 OUTPUT FLAGS FOR EACH LAYER:
          HEAD    DRAWDOWN  HEAD  DRAWDOWN
 LAYER  PRINTOUT  PRINTOUT  SAVE    SAVE
 -----------------------------------------
    1       0         0       1       1
 UBUDSV SAVING "         STORAGE" ON UNIT 50 AT TIME STEP 12, STRESS PERIOD    1
 UBUDSV SAVING "   CONSTANT HEAD" ON UNIT 50 AT TIME STEP 12, STRESS PERIOD    1
 UBUDSV SAVING "FLOW RIGHT FACE " ON UNIT 50 AT TIME STEP 12, STRESS PERIOD    1
 UBUDSV SAVING "FLOW FRONT FACE " ON UNIT 50 AT TIME STEP 12, STRESS PERIOD    1
 UBUDSV SAVING "           WELLS" ON UNIT 50 AT TIME STEP 12, STRESS PERIOD    1

 SAVING SATURATED THICKNESS AND FLOW TERMS ON UNIT  333 FOR MT3DMS
 BY THE LINK-MT3DMS PACKAGE V7 AT TIME STEP   12, STRESS PERIOD    1


 HEAD WILL BE SAVED ON UNIT   51 AT END OF TIME STEP   12, STRESS PERIOD    1

 DRAWDOWN WILL BE SAVED ON UNIT   52 AT END OF TIME STEP   12, STRESS PERIOD    1
1
  VOLUMETRIC BUDGET FOR ENTIRE MODEL AT END OF TIME STEP   12, STRESS PERIOD   1
  ------------------------------------------------------------------------------

     CUMULATIVE VOLUMES      L**3       RATES FOR THIS TIME STEP      L**3/T
     ------------------                 ------------------------

           IN:                                      IN:
           ---                                      ---
             STORAGE =          38.1558               STORAGE =           2.0765
       CONSTANT HEAD =           0.0000         CONSTANT HEAD =           0.0000
               WELLS =          21.4200                 WELLS =           1.7850

            TOTAL IN =          59.5758              TOTAL IN =           3.8615

          OUT:                                     OUT:
          ----                                     ----
             STORAGE =          35.0956               STORAGE =           1.8215
       CONSTANT HEAD =           0.0000         CONSTANT HEAD =           0.0000
               WELLS =          24.4800                 WELLS =           2.0400

           TOTAL OUT =          59.5756             TOTAL OUT =           3.8615

            IN - OUT =       2.3651E-04              IN - OUT =       3.0041E-05

 PERCENT DISCREPANCY =           0.00     PERCENT DISCREPANCY =           0.00






         TIME SUMMARY AT END OF TIME STEP   12 IN STRESS PERIOD    1
                    SECONDS     MINUTES      HOURS       DAYS        YEARS
                    -----------------------------------------------------------
   TIME STEP LENGTH 1.00000     1.66667E-02 2.77778E-04 1.15741E-05 3.16881E-08
 STRESS PERIOD TIME  12.000     0.20000     3.33333E-03 1.38889E-04 3.80257E-07
         TOTAL TIME  12.000     0.20000     3.33333E-03 1.38889E-04 3.80257E-07
1
 
 SOLVING FOR HEAD 
     5 ITERATIONS FOR TIME STEP  13 IN STRESS PERIOD    1

 MAXIMUM HEAD CHANGE FOR EACH ITERATION:

    HEAD CHANGE   HEAD CHANGE   HEAD CHANGE   HEAD CHANGE   HEAD CHANGE
  LAYER,ROW,COL LAYER,ROW,COL LAYER,ROW,COL LAYER,ROW,COL LAYER,ROW,COL
 ----------------------------------------------------------------------
     0.4516E-01    0.2072E-01   -0.6786E-02   -0.1169E-02   -0.6283E-04
  (  1, 51,  1) (  1, 29,  2) (  1, 45, 48) (  1, 36, 47) (  1, 51, 51)


 HEAD/DRAWDOWN PRINTOUT FLAG = 1     TOTAL BUDGET PRINTOUT FLAG = 1
 CELL-BY-CELL FLOW TERM FLAG = 1

 OUTPUT FLAGS FOR EACH LAYER:
          HEAD    DRAWDOWN  HEAD  DRAWDOWN
 LAYER  PRINTOUT  PRINTOUT  SAVE    SAVE
 -----------------------------------------
    1       0         0       1       1
 UBUDSV SAVING "         STORAGE" ON UNIT 50 AT TIME STEP 13, STRESS PERIOD    1
 UBUDSV SAVING "   CONSTANT HEAD" ON UNIT 50 AT TIME STEP 13, STRESS PERIOD    1
 UBUDSV SAVING "FLOW RIGHT FACE " ON UNIT 50 AT TIME STEP 13, STRESS PERIOD    1
 UBUDSV SAVING "FLOW FRONT FACE " ON UNIT 50 AT TIME STEP 13, STRESS PERIOD    1
 UBUDSV SAVING "           WELLS" ON UNIT 50 AT TIME STEP 13, STRESS PERIOD    1

 SAVING SATURATED THICKNESS AND FLOW TERMS ON UNIT  333 FOR MT3DMS
 BY THE LINK-MT3DMS PACKAGE V7 AT TIME STEP   13, STRESS PERIOD    1


 HEAD WILL BE SAVED ON UNIT   51 AT END OF TIME STEP   13, STRESS PERIOD    1

 DRAWDOWN WILL BE SAVED ON UNIT   52 AT END OF TIME STEP   13, STRESS PERIOD    1
1
  VOLUMETRIC BUDGET FOR ENTIRE MODEL AT END OF TIME STEP   13, STRESS PERIOD   1
  ------------------------------------------------------------------------------

     CUMULATIVE VOLUMES      L**3       RATES FOR THIS TIME STEP      L**3/T
     ------------------                 ------------------------

           IN:                                      IN:
           ---                                      ---
             STORAGE =          40.2213               STORAGE =           2.0655
       CONSTANT HEAD =           0.0000         CONSTANT HEAD =           0.0000
               WELLS =          23.2050                 WELLS =           1.7850

            TOTAL IN =          63.4263              TOTAL IN =           3.8505

          OUT:                                     OUT:
          ----                                     ----
             STORAGE =          36.9060               STORAGE =           1.8104
       CONSTANT HEAD =           0.0000         CONSTANT HEAD =           0.0000
               WELLS =          26.5200                 WELLS =           2.0400

           TOTAL OUT =          63.4260             TOTAL OUT =           3.8504

            IN - OUT =       2.6703E-04              IN - OUT =       3.0041E-05

 PERCENT DISCREPANCY =           0.00     PERCENT DISCREPANCY =           0.00






         TIME SUMMARY AT END OF TIME STEP   13 IN STRESS PERIOD    1
                    SECONDS     MINUTES      HOURS       DAYS        YEARS
                    -----------------------------------------------------------
   TIME STEP LENGTH 1.00000     1.66667E-02 2.77778E-04 1.15741E-05 3.16881E-08
 STRESS PERIOD TIME  13.000     0.21667     3.61111E-03 1.50463E-04 4.11945E-07
         TOTAL TIME  13.000     0.21667     3.61111E-03 1.50463E-04 4.11945E-07
1
 
 SOLVING FOR HEAD 
     5 ITERATIONS FOR TIME STEP  14 IN STRESS PERIOD    1

 MAXIMUM HEAD CHANGE FOR EACH ITERATION:

    HEAD CHANGE   HEAD CHANGE   HEAD CHANGE   HEAD CHANGE   HEAD CHANGE
  LAYER,ROW,COL LAYER,ROW,COL LAYER,ROW,COL LAYER,ROW,COL LAYER,ROW,COL
 ----------------------------------------------------------------------
     0.4202E-01    0.1958E-01   -0.6613E-02   -0.1139E-02   -0.6155E-04
  (  1, 51,  1) (  1, 29,  2) (  1, 45, 48) (  1, 37, 47) (  1, 51, 51)


 HEAD/DRAWDOWN PRINTOUT FLAG = 1     TOTAL BUDGET PRINTOUT FLAG = 1
 CELL-BY-CELL FLOW TERM FLAG = 1

 OUTPUT FLAGS FOR EACH LAYER:
          HEAD    DRAWDOWN  HEAD  DRAWDOWN
 LAYER  PRINTOUT  PRINTOUT  SAVE    SAVE
 -----------------------------------------
    1       0         0       1       1
 UBUDSV SAVING "         STORAGE" ON UNIT 50 AT TIME STEP 14, STRESS PERIOD    1
 UBUDSV SAVING "   CONSTANT HEAD" ON UNIT 50 AT TIME STEP 14, STRESS PERIOD    1
 UBUDSV SAVING "FLOW RIGHT FACE " ON UNIT 50 AT TIME STEP 14, STRESS PERIOD    1
 UBUDSV SAVING "FLOW FRONT FACE " ON UNIT 50 AT TIME STEP 14, STRESS PERIOD    1
 UBUDSV SAVING "           WELLS" ON UNIT 50 AT TIME STEP 14, STRESS PERIOD    1

 SAVING SATURATED THICKNESS AND FLOW TERMS ON UNIT  333 FOR MT3DMS
 BY THE LINK-MT3DMS PACKAGE V7 AT TIME STEP   14, STRESS PERIOD    1


 HEAD WILL BE SAVED ON UNIT   51 AT END OF TIME STEP   14, STRESS PERIOD    1

 DRAWDOWN WILL BE SAVED ON UNIT   52 AT END OF TIME STEP   14, STRESS PERIOD    1
1
  VOLUMETRIC BUDGET FOR ENTIRE MODEL AT END OF TIME STEP   14, STRESS PERIOD   1
  ------------------------------------------------------------------------------

     CUMULATIVE VOLUMES      L**3       RATES FOR THIS TIME STEP      L**3/T
     ------------------                 ------------------------

           IN:                                      IN:
           ---                                      ---
             STORAGE =          42.2765               STORAGE =           2.0552
       CONSTANT HEAD =           0.0000         CONSTANT HEAD =           0.0000
               WELLS =          24.9900                 WELLS =           1.7850

            TOTAL IN =          67.2665              TOTAL IN =           3.8402

          OUT:                                     OUT:
          ----                                     ----
             STORAGE =          38.7062               STORAGE =           1.8002
       CONSTANT HEAD =           0.0000         CONSTANT HEAD =           0.0000
               WELLS =          28.5600                 WELLS =           2.0400

           TOTAL OUT =          67.2662             TOTAL OUT =           3.8402

            IN - OUT =       2.8992E-04              IN - OUT =       2.8610E-05

 PERCENT DISCREPANCY =           0.00     PERCENT DISCREPANCY =           0.00






         TIME SUMMARY AT END OF TIME STEP   14 IN STRESS PERIOD    1
                    SECONDS     MINUTES      HOURS       DAYS        YEARS
                    -----------------------------------------------------------
   TIME STEP LENGTH 1.00000     1.66667E-02 2.77778E-04 1.15741E-05 3.16881E-08
 STRESS PERIOD TIME  14.000     0.23333     3.88889E-03 1.62037E-04 4.43633E-07
         TOTAL TIME  14.000     0.23333     3.88889E-03 1.62037E-04 4.43633E-07
1
 
 SOLVING FOR HEAD 
     5 ITERATIONS FOR TIME STEP  15 IN STRESS PERIOD    1

 MAXIMUM HEAD CHANGE FOR EACH ITERATION:

    HEAD CHANGE   HEAD CHANGE   HEAD CHANGE   HEAD CHANGE   HEAD CHANGE
  LAYER,ROW,COL LAYER,ROW,COL LAYER,ROW,COL LAYER,ROW,COL LAYER,ROW,COL
 ----------------------------------------------------------------------
     0.3937E-01    0.1858E-01   -0.6454E-02   -0.1111E-02   -0.6032E-04
  (  1, 51,  1) (  1, 29,  2) (  1, 45, 48) (  1, 37, 47) (  1, 51, 51)


 HEAD/DRAWDOWN PRINTOUT FLAG = 1     TOTAL BUDGET PRINTOUT FLAG = 1
 CELL-BY-CELL FLOW TERM FLAG = 1

 OUTPUT FLAGS FOR EACH LAYER:
          HEAD    DRAWDOWN  HEAD  DRAWDOWN
 LAYER  PRINTOUT  PRINTOUT  SAVE    SAVE
 -----------------------------------------
    1       0         0       1       1
 UBUDSV SAVING "         STORAGE" ON UNIT 50 AT TIME STEP 15, STRESS PERIOD    1
 UBUDSV SAVING "   CONSTANT HEAD" ON UNIT 50 AT TIME STEP 15, STRESS PERIOD    1
 UBUDSV SAVING "FLOW RIGHT FACE " ON UNIT 50 AT TIME STEP 15, STRESS PERIOD    1
 UBUDSV SAVING "FLOW FRONT FACE " ON UNIT 50 AT TIME STEP 15, STRESS PERIOD    1
 UBUDSV SAVING "           WELLS" ON UNIT 50 AT TIME STEP 15, STRESS PERIOD    1

 SAVING SATURATED THICKNESS AND FLOW TERMS ON UNIT  333 FOR MT3DMS
 BY THE LINK-MT3DMS PACKAGE V7 AT TIME STEP   15, STRESS PERIOD    1


 HEAD WILL BE SAVED ON UNIT   51 AT END OF TIME STEP   15, STRESS PERIOD    1

 DRAWDOWN WILL BE SAVED ON UNIT   52 AT END OF TIME STEP   15, STRESS PERIOD    1
1
  VOLUMETRIC BUDGET FOR ENTIRE MODEL AT END OF TIME STEP   15, STRESS PERIOD   1
  ------------------------------------------------------------------------------

     CUMULATIVE VOLUMES      L**3       RATES FOR THIS TIME STEP      L**3/T
     ------------------                 ------------------------

           IN:                                      IN:
           ---                                      ---
             STORAGE =          44.3211               STORAGE =           2.0446
       CONSTANT HEAD =           0.0000         CONSTANT HEAD =           0.0000
               WELLS =          26.7750                 WELLS =           1.7850

            TOTAL IN =          71.0961              TOTAL IN =           3.8296

          OUT:                                     OUT:
          ----                                     ----
             STORAGE =          40.4957               STORAGE =           1.7895
       CONSTANT HEAD =           0.0000         CONSTANT HEAD =           0.0000
               WELLS =          30.6000                 WELLS =           2.0400

           TOTAL OUT =          71.0957             TOTAL OUT =           3.8295

            IN - OUT =       3.2043E-04              IN - OUT =       2.7657E-05

 PERCENT DISCREPANCY =           0.00     PERCENT DISCREPANCY =           0.00






         TIME SUMMARY AT END OF TIME STEP   15 IN STRESS PERIOD    1
                    SECONDS     MINUTES      HOURS       DAYS        YEARS
                    -----------------------------------------------------------
   TIME STEP LENGTH 1.00000     1.66667E-02 2.77778E-04 1.15741E-05 3.16881E-08
 STRESS PERIOD TIME  15.000     0.25000     4.16667E-03 1.73611E-04 4.75321E-07
         TOTAL TIME  15.000     0.25000     4.16667E-03 1.73611E-04 4.75321E-07
1
 
 SOLVING FOR HEAD 
     5 ITERATIONS FOR TIME STEP  16 IN STRESS PERIOD    1

 MAXIMUM HEAD CHANGE FOR EACH ITERATION:

    HEAD CHANGE   HEAD CHANGE   HEAD CHANGE   HEAD CHANGE   HEAD CHANGE
  LAYER,ROW,COL LAYER,ROW,COL LAYER,ROW,COL LAYER,ROW,COL LAYER,ROW,COL
 ----------------------------------------------------------------------
     0.3708E-01    0.1777E-01   -0.6307E-02   -0.1084E-02   -0.5918E-04
  (  1, 51,  1) (  1, 48,  2) (  1, 45, 48) (  1, 37, 47) (  1, 51, 51)


 HEAD/DRAWDOWN PRINTOUT FLAG = 1     TOTAL BUDGET PRINTOUT FLAG = 1
 CELL-BY-CELL FLOW TERM FLAG = 1

 OUTPUT FLAGS FOR EACH LAYER:
          HEAD    DRAWDOWN  HEAD  DRAWDOWN
 LAYER  PRINTOUT  PRINTOUT  SAVE    SAVE
 -----------------------------------------
    1       0         0       1       1
 UBUDSV SAVING "         STORAGE" ON UNIT 50 AT TIME STEP 16, STRESS PERIOD    1
 UBUDSV SAVING "   CONSTANT HEAD" ON UNIT 50 AT TIME STEP 16, STRESS PERIOD    1
 UBUDSV SAVING "FLOW RIGHT FACE " ON UNIT 50 AT TIME STEP 16, STRESS PERIOD    1
 UBUDSV SAVING "FLOW FRONT FACE " ON UNIT 50 AT TIME STEP 16, STRESS PERIOD    1
 UBUDSV SAVING "           WELLS" ON UNIT 50 AT TIME STEP 16, STRESS PERIOD    1

 SAVING SATURATED THICKNESS AND FLOW TERMS ON UNIT  333 FOR MT3DMS
 BY THE LINK-MT3DMS PACKAGE V7 AT TIME STEP   16, STRESS PERIOD    1


 HEAD WILL BE SAVED ON UNIT   51 AT END OF TIME STEP   16, STRESS PERIOD    1

 DRAWDOWN WILL BE SAVED ON UNIT   52 AT END OF TIME STEP   16, STRESS PERIOD    1
1
  VOLUMETRIC BUDGET FOR ENTIRE MODEL AT END OF TIME STEP   16, STRESS PERIOD   1
  ------------------------------------------------------------------------------

     CUMULATIVE VOLUMES      L**3       RATES FOR THIS TIME STEP      L**3/T
     ------------------                 ------------------------

           IN:                                      IN:
           ---                                      ---
             STORAGE =          46.3552               STORAGE =           2.0341
       CONSTANT HEAD =           0.0000         CONSTANT HEAD =           0.0000
               WELLS =          28.5600                 WELLS =           1.7850

            TOTAL IN =          74.9152              TOTAL IN =           3.8191

          OUT:                                     OUT:
          ----                                     ----
             STORAGE =          42.2748               STORAGE =           1.7791
       CONSTANT HEAD =           0.0000         CONSTANT HEAD =           0.0000
               WELLS =          32.6400                 WELLS =           2.0400

           TOTAL OUT =          74.9148             TOTAL OUT =           3.8191

            IN - OUT =       3.5095E-04              IN - OUT =       2.6703E-05

 PERCENT DISCREPANCY =           0.00     PERCENT DISCREPANCY =           0.00






         TIME SUMMARY AT END OF TIME STEP   16 IN STRESS PERIOD    1
                    SECONDS     MINUTES      HOURS       DAYS        YEARS
                    -----------------------------------------------------------
   TIME STEP LENGTH 1.00000     1.66667E-02 2.77778E-04 1.15741E-05 3.16881E-08
 STRESS PERIOD TIME  16.000     0.26667     4.44444E-03 1.85185E-04 5.07009E-07
         TOTAL TIME  16.000     0.26667     4.44444E-03 1.85185E-04 5.07009E-07
1
 
 SOLVING FOR HEAD 
     5 ITERATIONS FOR TIME STEP  17 IN STRESS PERIOD    1

 MAXIMUM HEAD CHANGE FOR EACH ITERATION:

    HEAD CHANGE   HEAD CHANGE   HEAD CHANGE   HEAD CHANGE   HEAD CHANGE
  LAYER,ROW,COL LAYER,ROW,COL LAYER,ROW,COL LAYER,ROW,COL LAYER,ROW,COL
 ----------------------------------------------------------------------
     0.3510E-01    0.1704E-01   -0.6171E-02   -0.1060E-02   -0.5808E-04
  (  1, 51,  1) (  1, 48,  2) (  1, 45, 48) (  1, 38, 47) (  1, 51, 51)


 HEAD/DRAWDOWN PRINTOUT FLAG = 1     TOTAL BUDGET PRINTOUT FLAG = 1
 CELL-BY-CELL FLOW TERM FLAG = 1

 OUTPUT FLAGS FOR EACH LAYER:
          HEAD    DRAWDOWN  HEAD  DRAWDOWN
 LAYER  PRINTOUT  PRINTOUT  SAVE    SAVE
 -----------------------------------------
    1       0         0       1       1
 UBUDSV SAVING "         STORAGE" ON UNIT 50 AT TIME STEP 17, STRESS PERIOD    1
 UBUDSV SAVING "   CONSTANT HEAD" ON UNIT 50 AT TIME STEP 17, STRESS PERIOD    1
 UBUDSV SAVING "FLOW RIGHT FACE " ON UNIT 50 AT TIME STEP 17, STRESS PERIOD    1
 UBUDSV SAVING "FLOW FRONT FACE " ON UNIT 50 AT TIME STEP 17, STRESS PERIOD    1
 UBUDSV SAVING "           WELLS" ON UNIT 50 AT TIME STEP 17, STRESS PERIOD    1

 SAVING SATURATED THICKNESS AND FLOW TERMS ON UNIT  333 FOR MT3DMS
 BY THE LINK-MT3DMS PACKAGE V7 AT TIME STEP   17, STRESS PERIOD    1


 HEAD WILL BE SAVED ON UNIT   51 AT END OF TIME STEP   17, STRESS PERIOD    1

 DRAWDOWN WILL BE SAVED ON UNIT   52 AT END OF TIME STEP   17, STRESS PERIOD    1
1
  VOLUMETRIC BUDGET FOR ENTIRE MODEL AT END OF TIME STEP   17, STRESS PERIOD   1
  ------------------------------------------------------------------------------

     CUMULATIVE VOLUMES      L**3       RATES FOR THIS TIME STEP      L**3/T
     ------------------                 ------------------------

           IN:                                      IN:
           ---                                      ---
             STORAGE =          48.3781               STORAGE =           2.0229
       CONSTANT HEAD =           0.0000         CONSTANT HEAD =           0.0000
               WELLS =          30.3450                 WELLS =           1.7850

            TOTAL IN =          78.7231              TOTAL IN =           3.8079

          OUT:                                     OUT:
          ----                                     ----
             STORAGE =          44.0427               STORAGE =           1.7679
       CONSTANT HEAD =           0.0000         CONSTANT HEAD =           0.0000
               WELLS =          34.6800                 WELLS =           2.0400

           TOTAL OUT =          78.7227             TOTAL OUT =           3.8079

            IN - OUT =       3.6621E-04              IN - OUT =       2.5749E-05

 PERCENT DISCREPANCY =           0.00     PERCENT DISCREPANCY =           0.00






         TIME SUMMARY AT END OF TIME STEP   17 IN STRESS PERIOD    1
                    SECONDS     MINUTES      HOURS       DAYS        YEARS
                    -----------------------------------------------------------
   TIME STEP LENGTH 1.00000     1.66667E-02 2.77778E-04 1.15741E-05 3.16881E-08
 STRESS PERIOD TIME  17.000     0.28333     4.72222E-03 1.96759E-04 5.38697E-07
         TOTAL TIME  17.000     0.28333     4.72222E-03 1.96759E-04 5.38697E-07
1
 
 SOLVING FOR HEAD 
     5 ITERATIONS FOR TIME STEP  18 IN STRESS PERIOD    1

 MAXIMUM HEAD CHANGE FOR EACH ITERATION:

    HEAD CHANGE   HEAD CHANGE   HEAD CHANGE   HEAD CHANGE   HEAD CHANGE
  LAYER,ROW,COL LAYER,ROW,COL LAYER,ROW,COL LAYER,ROW,COL LAYER,ROW,COL
 ----------------------------------------------------------------------
     0.3336E-01    0.1639E-01   -0.6044E-02   -0.1037E-02   -0.5705E-04
  (  1, 51,  1) (  1, 48,  2) (  1, 45, 48) (  1, 38, 47) (  1, 51, 51)


 HEAD/DRAWDOWN PRINTOUT FLAG = 1     TOTAL BUDGET PRINTOUT FLAG = 1
 CELL-BY-CELL FLOW TERM FLAG = 1

 OUTPUT FLAGS FOR EACH LAYER:
          HEAD    DRAWDOWN  HEAD  DRAWDOWN
 LAYER  PRINTOUT  PRINTOUT  SAVE    SAVE
 -----------------------------------------
    1       0         0       1       1
 UBUDSV SAVING "         STORAGE" ON UNIT 50 AT TIME STEP 18, STRESS PERIOD    1
 UBUDSV SAVING "   CONSTANT HEAD" ON UNIT 50 AT TIME STEP 18, STRESS PERIOD    1
 UBUDSV SAVING "FLOW RIGHT FACE " ON UNIT 50 AT TIME STEP 18, STRESS PERIOD    1
 UBUDSV SAVING "FLOW FRONT FACE " ON UNIT 50 AT TIME STEP 18, STRESS PERIOD    1
 UBUDSV SAVING "           WELLS" ON UNIT 50 AT TIME STEP 18, STRESS PERIOD    1

 SAVING SATURATED THICKNESS AND FLOW TERMS ON UNIT  333 FOR MT3DMS
 BY THE LINK-MT3DMS PACKAGE V7 AT TIME STEP   18, STRESS PERIOD    1


 HEAD WILL BE SAVED ON UNIT   51 AT END OF TIME STEP   18, STRESS PERIOD    1

 DRAWDOWN WILL BE SAVED ON UNIT   52 AT END OF TIME STEP   18, STRESS PERIOD    1
1
  VOLUMETRIC BUDGET FOR ENTIRE MODEL AT END OF TIME STEP   18, STRESS PERIOD   1
  ------------------------------------------------------------------------------

     CUMULATIVE VOLUMES      L**3       RATES FOR THIS TIME STEP      L**3/T
     ------------------                 ------------------------

           IN:                                      IN:
           ---                                      ---
             STORAGE =          50.3893               STORAGE =           2.0112
       CONSTANT HEAD =           0.0000         CONSTANT HEAD =           0.0000
               WELLS =          32.1300                 WELLS =           1.7850

            TOTAL IN =          82.5193              TOTAL IN =           3.7962

          OUT:                                     OUT:
          ----                                     ----
             STORAGE =          45.7989               STORAGE =           1.7562
       CONSTANT HEAD =           0.0000         CONSTANT HEAD =           0.0000
               WELLS =          36.7200                 WELLS =           2.0400

           TOTAL OUT =          82.5189             TOTAL OUT =           3.7962

            IN - OUT =       3.9673E-04              IN - OUT =       2.5749E-05

 PERCENT DISCREPANCY =           0.00     PERCENT DISCREPANCY =           0.00






         TIME SUMMARY AT END OF TIME STEP   18 IN STRESS PERIOD    1
                    SECONDS     MINUTES      HOURS       DAYS        YEARS
                    -----------------------------------------------------------
   TIME STEP LENGTH 1.00000     1.66667E-02 2.77778E-04 1.15741E-05 3.16881E-08
 STRESS PERIOD TIME  18.000     0.30000     5.00000E-03 2.08333E-04 5.70386E-07
         TOTAL TIME  18.000     0.30000     5.00000E-03 2.08333E-04 5.70386E-07
1
 
 SOLVING FOR HEAD 
     5 ITERATIONS FOR TIME STEP  19 IN STRESS PERIOD    1

 MAXIMUM HEAD CHANGE FOR EACH ITERATION:

    HEAD CHANGE   HEAD CHANGE   HEAD CHANGE   HEAD CHANGE   HEAD CHANGE
  LAYER,ROW,COL LAYER,ROW,COL LAYER,ROW,COL LAYER,ROW,COL LAYER,ROW,COL
 ----------------------------------------------------------------------
     0.3181E-01    0.1581E-01   -0.5926E-02   -0.1015E-02   -0.5608E-04
  (  1, 51,  1) (  1, 48,  2) (  1, 45, 48) (  1, 38, 46) (  1, 51, 51)


 HEAD/DRAWDOWN PRINTOUT FLAG = 1     TOTAL BUDGET PRINTOUT FLAG = 1
 CELL-BY-CELL FLOW TERM FLAG = 1

 OUTPUT FLAGS FOR EACH LAYER:
          HEAD    DRAWDOWN  HEAD  DRAWDOWN
 LAYER  PRINTOUT  PRINTOUT  SAVE    SAVE
 -----------------------------------------
    1       0         0       1       1
 UBUDSV SAVING "         STORAGE" ON UNIT 50 AT TIME STEP 19, STRESS PERIOD    1
 UBUDSV SAVING "   CONSTANT HEAD" ON UNIT 50 AT TIME STEP 19, STRESS PERIOD    1
 UBUDSV SAVING "FLOW RIGHT FACE " ON UNIT 50 AT TIME STEP 19, STRESS PERIOD    1
 UBUDSV SAVING "FLOW FRONT FACE " ON UNIT 50 AT TIME STEP 19, STRESS PERIOD    1
 UBUDSV SAVING "           WELLS" ON UNIT 50 AT TIME STEP 19, STRESS PERIOD    1

 SAVING SATURATED THICKNESS AND FLOW TERMS ON UNIT  333 FOR MT3DMS
 BY THE LINK-MT3DMS PACKAGE V7 AT TIME STEP   19, STRESS PERIOD    1


 HEAD WILL BE SAVED ON UNIT   51 AT END OF TIME STEP   19, STRESS PERIOD    1

 DRAWDOWN WILL BE SAVED ON UNIT   52 AT END OF TIME STEP   19, STRESS PERIOD    1
1
  VOLUMETRIC BUDGET FOR ENTIRE MODEL AT END OF TIME STEP   19, STRESS PERIOD   1
  ------------------------------------------------------------------------------

     CUMULATIVE VOLUMES      L**3       RATES FOR THIS TIME STEP      L**3/T
     ------------------                 ------------------------

           IN:                                      IN:
           ---                                      ---
             STORAGE =          52.3886               STORAGE =           1.9993
       CONSTANT HEAD =           0.0000         CONSTANT HEAD =           0.0000
               WELLS =          33.9150                 WELLS =           1.7850

            TOTAL IN =          86.3036              TOTAL IN =           3.7843

          OUT:                                     OUT:
          ----                                     ----
             STORAGE =          47.5432               STORAGE =           1.7443
       CONSTANT HEAD =           0.0000         CONSTANT HEAD =           0.0000
               WELLS =          38.7600                 WELLS =           2.0400

           TOTAL OUT =          86.3032             TOTAL OUT =           3.7843

            IN - OUT =       4.2725E-04              IN - OUT =       2.6464E-05

 PERCENT DISCREPANCY =           0.00     PERCENT DISCREPANCY =           0.00






         TIME SUMMARY AT END OF TIME STEP   19 IN STRESS PERIOD    1
                    SECONDS     MINUTES      HOURS       DAYS        YEARS
                    -----------------------------------------------------------
   TIME STEP LENGTH 1.00000     1.66667E-02 2.77778E-04 1.15741E-05 3.16881E-08
 STRESS PERIOD TIME  19.000     0.31667     5.27778E-03 2.19907E-04 6.02074E-07
         TOTAL TIME  19.000     0.31667     5.27778E-03 2.19907E-04 6.02074E-07
1
 
 SOLVING FOR HEAD 
     4 ITERATIONS FOR TIME STEP  20 IN STRESS PERIOD    1

 MAXIMUM HEAD CHANGE FOR EACH ITERATION:

    HEAD CHANGE   HEAD CHANGE   HEAD CHANGE   HEAD CHANGE   HEAD CHANGE
  LAYER,ROW,COL LAYER,ROW,COL LAYER,ROW,COL LAYER,ROW,COL LAYER,ROW,COL
 ----------------------------------------------------------------------
     0.3043E-01    0.1527E-01   -0.5816E-02   -0.9959E-03
  (  1, 51,  1) (  1, 48,  2) (  1, 45, 48) (  1, 38, 46)


 HEAD/DRAWDOWN PRINTOUT FLAG = 1     TOTAL BUDGET PRINTOUT FLAG = 1
 CELL-BY-CELL FLOW TERM FLAG = 1

 OUTPUT FLAGS FOR EACH LAYER:
          HEAD    DRAWDOWN  HEAD  DRAWDOWN
 LAYER  PRINTOUT  PRINTOUT  SAVE    SAVE
 -----------------------------------------
    1       0         0       1       1
 UBUDSV SAVING "         STORAGE" ON UNIT 50 AT TIME STEP 20, STRESS PERIOD    1
 UBUDSV SAVING "   CONSTANT HEAD" ON UNIT 50 AT TIME STEP 20, STRESS PERIOD    1
 UBUDSV SAVING "FLOW RIGHT FACE " ON UNIT 50 AT TIME STEP 20, STRESS PERIOD    1
 UBUDSV SAVING "FLOW FRONT FACE " ON UNIT 50 AT TIME STEP 20, STRESS PERIOD    1
 UBUDSV SAVING "           WELLS" ON UNIT 50 AT TIME STEP 20, STRESS PERIOD    1

 SAVING SATURATED THICKNESS AND FLOW TERMS ON UNIT  333 FOR MT3DMS
 BY THE LINK-MT3DMS PACKAGE V7 AT TIME STEP   20, STRESS PERIOD    1


 HEAD WILL BE SAVED ON UNIT   51 AT END OF TIME STEP   20, STRESS PERIOD    1

 DRAWDOWN WILL BE SAVED ON UNIT   52 AT END OF TIME STEP   20, STRESS PERIOD    1
1
  VOLUMETRIC BUDGET FOR ENTIRE MODEL AT END OF TIME STEP   20, STRESS PERIOD   1
  ------------------------------------------------------------------------------

     CUMULATIVE VOLUMES      L**3       RATES FOR THIS TIME STEP      L**3/T
     ------------------                 ------------------------

           IN:                                      IN:
           ---                                      ---
             STORAGE =          54.3723               STORAGE =           1.9837
       CONSTANT HEAD =           0.0000         CONSTANT HEAD =           0.0000
               WELLS =          35.7000                 WELLS =           1.7850

            TOTAL IN =          90.0723              TOTAL IN =           3.7687

          OUT:                                     OUT:
          ----                                     ----
             STORAGE =          49.2745               STORAGE =           1.7313
       CONSTANT HEAD =           0.0000         CONSTANT HEAD =           0.0000
               WELLS =          40.8000                 WELLS =           2.0400

           TOTAL OUT =          90.0745             TOTAL OUT =           3.7713

            IN - OUT =      -2.2354E-03              IN - OUT =      -2.6579E-03

 PERCENT DISCREPANCY =          -0.00     PERCENT DISCREPANCY =          -0.07






         TIME SUMMARY AT END OF TIME STEP   20 IN STRESS PERIOD    1
                    SECONDS     MINUTES      HOURS       DAYS        YEARS
                    -----------------------------------------------------------
   TIME STEP LENGTH 1.00000     1.66667E-02 2.77778E-04 1.15741E-05 3.16881E-08
 STRESS PERIOD TIME  20.000     0.33333     5.55556E-03 2.31481E-04 6.33762E-07
         TOTAL TIME  20.000     0.33333     5.55556E-03 2.31481E-04 6.33762E-07
1
 
 SOLVING FOR HEAD 
     4 ITERATIONS FOR TIME STEP  21 IN STRESS PERIOD    1

 MAXIMUM HEAD CHANGE FOR EACH ITERATION:

    HEAD CHANGE   HEAD CHANGE   HEAD CHANGE   HEAD CHANGE   HEAD CHANGE
  LAYER,ROW,COL LAYER,ROW,COL LAYER,ROW,COL LAYER,ROW,COL LAYER,ROW,COL
 ----------------------------------------------------------------------
     0.2919E-01    0.1478E-01   -0.5713E-02   -0.9775E-03
  (  1, 51,  1) (  1, 48,  2) (  1, 45, 48) (  1, 38, 46)


 HEAD/DRAWDOWN PRINTOUT FLAG = 1     TOTAL BUDGET PRINTOUT FLAG = 1
 CELL-BY-CELL FLOW TERM FLAG = 1

 OUTPUT FLAGS FOR EACH LAYER:
          HEAD    DRAWDOWN  HEAD  DRAWDOWN
 LAYER  PRINTOUT  PRINTOUT  SAVE    SAVE
 -----------------------------------------
    1       0         0       1       1
 UBUDSV SAVING "         STORAGE" ON UNIT 50 AT TIME STEP 21, STRESS PERIOD    1
 UBUDSV SAVING "   CONSTANT HEAD" ON UNIT 50 AT TIME STEP 21, STRESS PERIOD    1
 UBUDSV SAVING "FLOW RIGHT FACE " ON UNIT 50 AT TIME STEP 21, STRESS PERIOD    1
 UBUDSV SAVING "FLOW FRONT FACE " ON UNIT 50 AT TIME STEP 21, STRESS PERIOD    1
 UBUDSV SAVING "           WELLS" ON UNIT 50 AT TIME STEP 21, STRESS PERIOD    1

 SAVING SATURATED THICKNESS AND FLOW TERMS ON UNIT  333 FOR MT3DMS
 BY THE LINK-MT3DMS PACKAGE V7 AT TIME STEP   21, STRESS PERIOD    1


 HEAD WILL BE SAVED ON UNIT   51 AT END OF TIME STEP   21, STRESS PERIOD    1

 DRAWDOWN WILL BE SAVED ON UNIT   52 AT END OF TIME STEP   21, STRESS PERIOD    1
1
  VOLUMETRIC BUDGET FOR ENTIRE MODEL AT END OF TIME STEP   21, STRESS PERIOD   1
  ------------------------------------------------------------------------------

     CUMULATIVE VOLUMES      L**3       RATES FOR THIS TIME STEP      L**3/T
     ------------------                 ------------------------

           IN:                                      IN:
           ---                                      ---
             STORAGE =          56.3427               STORAGE =           1.9704
       CONSTANT HEAD =           0.0000         CONSTANT HEAD =           0.0000
               WELLS =          37.4850                 WELLS =           1.7850

            TOTAL IN =          93.8277              TOTAL IN =           3.7554

          OUT:                                     OUT:
          ----                                     ----
             STORAGE =          50.9926               STORAGE =           1.7181
       CONSTANT HEAD =           0.0000         CONSTANT HEAD =           0.0000
               WELLS =          42.8400                 WELLS =           2.0400

           TOTAL OUT =          93.8326             TOTAL OUT =           3.7581

            IN - OUT =      -4.8523E-03              IN - OUT =      -2.6150E-03

 PERCENT DISCREPANCY =          -0.01     PERCENT DISCREPANCY =          -0.07






         TIME SUMMARY AT END OF TIME STEP   21 IN STRESS PERIOD    1
                    SECONDS     MINUTES      HOURS       DAYS        YEARS
                    -----------------------------------------------------------
   TIME STEP LENGTH 1.00000     1.66667E-02 2.77778E-04 1.15741E-05 3.16881E-08
 STRESS PERIOD TIME  21.000     0.35000     5.83333E-03 2.43056E-04 6.65450E-07
         TOTAL TIME  21.000     0.35000     5.83333E-03 2.43056E-04 6.65450E-07
1
 
 SOLVING FOR HEAD 
     4 ITERATIONS FOR TIME STEP  22 IN STRESS PERIOD    1

 MAXIMUM HEAD CHANGE FOR EACH ITERATION:

    HEAD CHANGE   HEAD CHANGE   HEAD CHANGE   HEAD CHANGE   HEAD CHANGE
  LAYER,ROW,COL LAYER,ROW,COL LAYER,ROW,COL LAYER,ROW,COL LAYER,ROW,COL
 ----------------------------------------------------------------------
     0.2806E-01    0.1433E-01   -0.5617E-02   -0.9602E-03
  (  1, 51,  1) (  1, 48,  2) (  1, 45, 48) (  1, 39, 46)


 HEAD/DRAWDOWN PRINTOUT FLAG = 1     TOTAL BUDGET PRINTOUT FLAG = 1
 CELL-BY-CELL FLOW TERM FLAG = 1

 OUTPUT FLAGS FOR EACH LAYER:
          HEAD    DRAWDOWN  HEAD  DRAWDOWN
 LAYER  PRINTOUT  PRINTOUT  SAVE    SAVE
 -----------------------------------------
    1       0         0       1       1
 UBUDSV SAVING "         STORAGE" ON UNIT 50 AT TIME STEP 22, STRESS PERIOD    1
 UBUDSV SAVING "   CONSTANT HEAD" ON UNIT 50 AT TIME STEP 22, STRESS PERIOD    1
 UBUDSV SAVING "FLOW RIGHT FACE " ON UNIT 50 AT TIME STEP 22, STRESS PERIOD    1
 UBUDSV SAVING "FLOW FRONT FACE " ON UNIT 50 AT TIME STEP 22, STRESS PERIOD    1
 UBUDSV SAVING "           WELLS" ON UNIT 50 AT TIME STEP 22, STRESS PERIOD    1

 SAVING SATURATED THICKNESS AND FLOW TERMS ON UNIT  333 FOR MT3DMS
 BY THE LINK-MT3DMS PACKAGE V7 AT TIME STEP   22, STRESS PERIOD    1


 HEAD WILL BE SAVED ON UNIT   51 AT END OF TIME STEP   22, STRESS PERIOD    1

 DRAWDOWN WILL BE SAVED ON UNIT   52 AT END OF TIME STEP   22, STRESS PERIOD    1
1
  VOLUMETRIC BUDGET FOR ENTIRE MODEL AT END OF TIME STEP   22, STRESS PERIOD   1
  ------------------------------------------------------------------------------

     CUMULATIVE VOLUMES      L**3       RATES FOR THIS TIME STEP      L**3/T
     ------------------                 ------------------------

           IN:                                      IN:
           ---                                      ---
             STORAGE =          58.2997               STORAGE =           1.9570
       CONSTANT HEAD =           0.0000         CONSTANT HEAD =           0.0000
               WELLS =          39.2700                 WELLS =           1.7850

            TOTAL IN =          97.5697              TOTAL IN =           3.7420

          OUT:                                     OUT:
          ----                                     ----
             STORAGE =          52.6971               STORAGE =           1.7046
       CONSTANT HEAD =           0.0000         CONSTANT HEAD =           0.0000
               WELLS =          44.8800                 WELLS =           2.0400

           TOTAL OUT =          97.5772             TOTAL OUT =           3.7446

            IN - OUT =      -7.4310E-03              IN - OUT =      -2.5740E-03

 PERCENT DISCREPANCY =          -0.01     PERCENT DISCREPANCY =          -0.07






         TIME SUMMARY AT END OF TIME STEP   22 IN STRESS PERIOD    1
                    SECONDS     MINUTES      HOURS       DAYS        YEARS
                    -----------------------------------------------------------
   TIME STEP LENGTH 1.00000     1.66667E-02 2.77778E-04 1.15741E-05 3.16881E-08
 STRESS PERIOD TIME  22.000     0.36667     6.11111E-03 2.54630E-04 6.97138E-07
         TOTAL TIME  22.000     0.36667     6.11111E-03 2.54630E-04 6.97138E-07
1
 
 SOLVING FOR HEAD 
     4 ITERATIONS FOR TIME STEP  23 IN STRESS PERIOD    1

 MAXIMUM HEAD CHANGE FOR EACH ITERATION:

    HEAD CHANGE   HEAD CHANGE   HEAD CHANGE   HEAD CHANGE   HEAD CHANGE
  LAYER,ROW,COL LAYER,ROW,COL LAYER,ROW,COL LAYER,ROW,COL LAYER,ROW,COL
 ----------------------------------------------------------------------
     0.2704E-01    0.1392E-01   -0.5526E-02   -0.9437E-03
  (  1, 51,  1) (  1, 48,  2) (  1, 45, 48) (  1, 39, 46)


 HEAD/DRAWDOWN PRINTOUT FLAG = 1     TOTAL BUDGET PRINTOUT FLAG = 1
 CELL-BY-CELL FLOW TERM FLAG = 1

 OUTPUT FLAGS FOR EACH LAYER:
          HEAD    DRAWDOWN  HEAD  DRAWDOWN
 LAYER  PRINTOUT  PRINTOUT  SAVE    SAVE
 -----------------------------------------
    1       0         0       1       1
 UBUDSV SAVING "         STORAGE" ON UNIT 50 AT TIME STEP 23, STRESS PERIOD    1
 UBUDSV SAVING "   CONSTANT HEAD" ON UNIT 50 AT TIME STEP 23, STRESS PERIOD    1
 UBUDSV SAVING "FLOW RIGHT FACE " ON UNIT 50 AT TIME STEP 23, STRESS PERIOD    1
 UBUDSV SAVING "FLOW FRONT FACE " ON UNIT 50 AT TIME STEP 23, STRESS PERIOD    1
 UBUDSV SAVING "           WELLS" ON UNIT 50 AT TIME STEP 23, STRESS PERIOD    1

 SAVING SATURATED THICKNESS AND FLOW TERMS ON UNIT  333 FOR MT3DMS
 BY THE LINK-MT3DMS PACKAGE V7 AT TIME STEP   23, STRESS PERIOD    1


 HEAD WILL BE SAVED ON UNIT   51 AT END OF TIME STEP   23, STRESS PERIOD    1

 DRAWDOWN WILL BE SAVED ON UNIT   52 AT END OF TIME STEP   23, STRESS PERIOD    1
1
  VOLUMETRIC BUDGET FOR ENTIRE MODEL AT END OF TIME STEP   23, STRESS PERIOD   1
  ------------------------------------------------------------------------------

     CUMULATIVE VOLUMES      L**3       RATES FOR THIS TIME STEP      L**3/T
     ------------------                 ------------------------

           IN:                                      IN:
           ---                                      ---
             STORAGE =          60.2428               STORAGE =           1.9431
       CONSTANT HEAD =           0.0000         CONSTANT HEAD =           0.0000
               WELLS =          41.0550                 WELLS =           1.7850

            TOTAL IN =         101.2978              TOTAL IN =           3.7281

          OUT:                                     OUT:
          ----                                     ----
             STORAGE =          54.3878               STORAGE =           1.6906
       CONSTANT HEAD =           0.0000         CONSTANT HEAD =           0.0000
               WELLS =          46.9200                 WELLS =           2.0400

           TOTAL OUT =         101.3078             TOTAL OUT =           3.7306

            IN - OUT =      -9.9640E-03              IN - OUT =      -2.5325E-03

 PERCENT DISCREPANCY =          -0.01     PERCENT DISCREPANCY =          -0.07






         TIME SUMMARY AT END OF TIME STEP   23 IN STRESS PERIOD    1
                    SECONDS     MINUTES      HOURS       DAYS        YEARS
                    -----------------------------------------------------------
   TIME STEP LENGTH 1.00000     1.66667E-02 2.77778E-04 1.15741E-05 3.16881E-08
 STRESS PERIOD TIME  23.000     0.38333     6.38889E-03 2.66204E-04 7.28826E-07
         TOTAL TIME  23.000     0.38333     6.38889E-03 2.66204E-04 7.28826E-07
1
 
 SOLVING FOR HEAD 
     4 ITERATIONS FOR TIME STEP  24 IN STRESS PERIOD    1

 MAXIMUM HEAD CHANGE FOR EACH ITERATION:

    HEAD CHANGE   HEAD CHANGE   HEAD CHANGE   HEAD CHANGE   HEAD CHANGE
  LAYER,ROW,COL LAYER,ROW,COL LAYER,ROW,COL LAYER,ROW,COL LAYER,ROW,COL
 ----------------------------------------------------------------------
     0.2611E-01    0.1353E-01   -0.5441E-02   -0.9280E-03
  (  1, 51,  1) (  1, 48,  2) (  1, 45, 48) (  1, 39, 46)


 HEAD/DRAWDOWN PRINTOUT FLAG = 1     TOTAL BUDGET PRINTOUT FLAG = 1
 CELL-BY-CELL FLOW TERM FLAG = 1

 OUTPUT FLAGS FOR EACH LAYER:
          HEAD    DRAWDOWN  HEAD  DRAWDOWN
 LAYER  PRINTOUT  PRINTOUT  SAVE    SAVE
 -----------------------------------------
    1       0         0       1       1
 UBUDSV SAVING "         STORAGE" ON UNIT 50 AT TIME STEP 24, STRESS PERIOD    1
 UBUDSV SAVING "   CONSTANT HEAD" ON UNIT 50 AT TIME STEP 24, STRESS PERIOD    1
 UBUDSV SAVING "FLOW RIGHT FACE " ON UNIT 50 AT TIME STEP 24, STRESS PERIOD    1
 UBUDSV SAVING "FLOW FRONT FACE " ON UNIT 50 AT TIME STEP 24, STRESS PERIOD    1
 UBUDSV SAVING "           WELLS" ON UNIT 50 AT TIME STEP 24, STRESS PERIOD    1

 SAVING SATURATED THICKNESS AND FLOW TERMS ON UNIT  333 FOR MT3DMS
 BY THE LINK-MT3DMS PACKAGE V7 AT TIME STEP   24, STRESS PERIOD    1


 HEAD WILL BE SAVED ON UNIT   51 AT END OF TIME STEP   24, STRESS PERIOD    1

 DRAWDOWN WILL BE SAVED ON UNIT   52 AT END OF TIME STEP   24, STRESS PERIOD    1
1
  VOLUMETRIC BUDGET FOR ENTIRE MODEL AT END OF TIME STEP   24, STRESS PERIOD   1
  ------------------------------------------------------------------------------

     CUMULATIVE VOLUMES      L**3       RATES FOR THIS TIME STEP      L**3/T
     ------------------                 ------------------------

           IN:                                      IN:
           ---                                      ---
             STORAGE =          62.1715               STORAGE =           1.9287
       CONSTANT HEAD =           0.0000         CONSTANT HEAD =           0.0000
               WELLS =          42.8400                 WELLS =           1.7850

            TOTAL IN =         105.0115              TOTAL IN =           3.7137

          OUT:                                     OUT:
          ----                                     ----
             STORAGE =          56.0639               STORAGE =           1.6762
       CONSTANT HEAD =           0.0000         CONSTANT HEAD =           0.0000
               WELLS =          48.9600                 WELLS =           2.0400

           TOTAL OUT =         105.0239             TOTAL OUT =           3.7162

            IN - OUT =      -1.2451E-02              IN - OUT =      -2.4912E-03

 PERCENT DISCREPANCY =          -0.01     PERCENT DISCREPANCY =          -0.07






         TIME SUMMARY AT END OF TIME STEP   24 IN STRESS PERIOD    1
                    SECONDS     MINUTES      HOURS       DAYS        YEARS
                    -----------------------------------------------------------
   TIME STEP LENGTH 1.00000     1.66667E-02 2.77778E-04 1.15741E-05 3.16881E-08
 STRESS PERIOD TIME  24.000     0.40000     6.66667E-03 2.77778E-04 7.60514E-07
         TOTAL TIME  24.000     0.40000     6.66667E-03 2.77778E-04 7.60514E-07
1
 
 SOLVING FOR HEAD 
     4 ITERATIONS FOR TIME STEP  25 IN STRESS PERIOD    1

 MAXIMUM HEAD CHANGE FOR EACH ITERATION:

    HEAD CHANGE   HEAD CHANGE   HEAD CHANGE   HEAD CHANGE   HEAD CHANGE
  LAYER,ROW,COL LAYER,ROW,COL LAYER,ROW,COL LAYER,ROW,COL LAYER,ROW,COL
 ----------------------------------------------------------------------
     0.2525E-01    0.1318E-01   -0.5363E-02   -0.9130E-03
  (  1, 51,  1) (  1, 48,  2) (  1, 45, 47) (  1, 39, 46)


 HEAD/DRAWDOWN PRINTOUT FLAG = 1     TOTAL BUDGET PRINTOUT FLAG = 1
 CELL-BY-CELL FLOW TERM FLAG = 1

 OUTPUT FLAGS FOR EACH LAYER:
          HEAD    DRAWDOWN  HEAD  DRAWDOWN
 LAYER  PRINTOUT  PRINTOUT  SAVE    SAVE
 -----------------------------------------
    1       0         0       1       1
 UBUDSV SAVING "         STORAGE" ON UNIT 50 AT TIME STEP 25, STRESS PERIOD    1
 UBUDSV SAVING "   CONSTANT HEAD" ON UNIT 50 AT TIME STEP 25, STRESS PERIOD    1
 UBUDSV SAVING "FLOW RIGHT FACE " ON UNIT 50 AT TIME STEP 25, STRESS PERIOD    1
 UBUDSV SAVING "FLOW FRONT FACE " ON UNIT 50 AT TIME STEP 25, STRESS PERIOD    1
 UBUDSV SAVING "           WELLS" ON UNIT 50 AT TIME STEP 25, STRESS PERIOD    1

 SAVING SATURATED THICKNESS AND FLOW TERMS ON UNIT  333 FOR MT3DMS
 BY THE LINK-MT3DMS PACKAGE V7 AT TIME STEP   25, STRESS PERIOD    1


 HEAD WILL BE SAVED ON UNIT   51 AT END OF TIME STEP   25, STRESS PERIOD    1

 DRAWDOWN WILL BE SAVED ON UNIT   52 AT END OF TIME STEP   25, STRESS PERIOD    1
1
  VOLUMETRIC BUDGET FOR ENTIRE MODEL AT END OF TIME STEP   25, STRESS PERIOD   1
  ------------------------------------------------------------------------------

     CUMULATIVE VOLUMES      L**3       RATES FOR THIS TIME STEP      L**3/T
     ------------------                 ------------------------

           IN:                                      IN:
           ---                                      ---
             STORAGE =          64.0855               STORAGE =           1.9140
       CONSTANT HEAD =           0.0000         CONSTANT HEAD =           0.0000
               WELLS =          44.6250                 WELLS =           1.7850

            TOTAL IN =         108.7105              TOTAL IN =           3.6990

          OUT:                                     OUT:
          ----                                     ----
             STORAGE =          57.7254               STORAGE =           1.6615
       CONSTANT HEAD =           0.0000         CONSTANT HEAD =           0.0000
               WELLS =          51.0000                 WELLS =           2.0400

           TOTAL OUT =         108.7254             TOTAL OUT =           3.7015

            IN - OUT =      -1.4900E-02              IN - OUT =      -2.4509E-03

 PERCENT DISCREPANCY =          -0.01     PERCENT DISCREPANCY =          -0.07






         TIME SUMMARY AT END OF TIME STEP   25 IN STRESS PERIOD    1
                    SECONDS     MINUTES      HOURS       DAYS        YEARS
                    -----------------------------------------------------------
   TIME STEP LENGTH 1.00000     1.66667E-02 2.77778E-04 1.15741E-05 3.16881E-08
 STRESS PERIOD TIME  25.000     0.41667     6.94444E-03 2.89352E-04 7.92202E-07
         TOTAL TIME  25.000     0.41667     6.94444E-03 2.89352E-04 7.92202E-07
1
 
 SOLVING FOR HEAD 
     4 ITERATIONS FOR TIME STEP  26 IN STRESS PERIOD    1

 MAXIMUM HEAD CHANGE FOR EACH ITERATION:

    HEAD CHANGE   HEAD CHANGE   HEAD CHANGE   HEAD CHANGE   HEAD CHANGE
  LAYER,ROW,COL LAYER,ROW,COL LAYER,ROW,COL LAYER,ROW,COL LAYER,ROW,COL
 ----------------------------------------------------------------------
     0.2445E-01    0.1284E-01   -0.5289E-02   -0.8989E-03
  (  1, 51,  1) (  1, 48,  2) (  1, 45, 47) (  1, 39, 45)


 HEAD/DRAWDOWN PRINTOUT FLAG = 1     TOTAL BUDGET PRINTOUT FLAG = 1
 CELL-BY-CELL FLOW TERM FLAG = 1

 OUTPUT FLAGS FOR EACH LAYER:
          HEAD    DRAWDOWN  HEAD  DRAWDOWN
 LAYER  PRINTOUT  PRINTOUT  SAVE    SAVE
 -----------------------------------------
    1       0         0       1       1
 UBUDSV SAVING "         STORAGE" ON UNIT 50 AT TIME STEP 26, STRESS PERIOD    1
 UBUDSV SAVING "   CONSTANT HEAD" ON UNIT 50 AT TIME STEP 26, STRESS PERIOD    1
 UBUDSV SAVING "FLOW RIGHT FACE " ON UNIT 50 AT TIME STEP 26, STRESS PERIOD    1
 UBUDSV SAVING "FLOW FRONT FACE " ON UNIT 50 AT TIME STEP 26, STRESS PERIOD    1
 UBUDSV SAVING "           WELLS" ON UNIT 50 AT TIME STEP 26, STRESS PERIOD    1

 SAVING SATURATED THICKNESS AND FLOW TERMS ON UNIT  333 FOR MT3DMS
 BY THE LINK-MT3DMS PACKAGE V7 AT TIME STEP   26, STRESS PERIOD    1


 HEAD WILL BE SAVED ON UNIT   51 AT END OF TIME STEP   26, STRESS PERIOD    1

 DRAWDOWN WILL BE SAVED ON UNIT   52 AT END OF TIME STEP   26, STRESS PERIOD    1
1
  VOLUMETRIC BUDGET FOR ENTIRE MODEL AT END OF TIME STEP   26, STRESS PERIOD   1
  ------------------------------------------------------------------------------

     CUMULATIVE VOLUMES      L**3       RATES FOR THIS TIME STEP      L**3/T
     ------------------                 ------------------------

           IN:                                      IN:
           ---                                      ---
             STORAGE =          65.9845               STORAGE =           1.8990
       CONSTANT HEAD =           0.0000         CONSTANT HEAD =           0.0000
               WELLS =          46.4100                 WELLS =           1.7850

            TOTAL IN =         112.3945              TOTAL IN =           3.6840

          OUT:                                     OUT:
          ----                                     ----
             STORAGE =          59.3718               STORAGE =           1.6464
       CONSTANT HEAD =           0.0000         CONSTANT HEAD =           0.0000
               WELLS =          53.0400                 WELLS =           2.0400

           TOTAL OUT =         112.4118             TOTAL OUT =           3.6864

            IN - OUT =      -1.7319E-02              IN - OUT =      -2.4095E-03

 PERCENT DISCREPANCY =          -0.02     PERCENT DISCREPANCY =          -0.07






         TIME SUMMARY AT END OF TIME STEP   26 IN STRESS PERIOD    1
                    SECONDS     MINUTES      HOURS       DAYS        YEARS
                    -----------------------------------------------------------
   TIME STEP LENGTH 1.00000     1.66667E-02 2.77778E-04 1.15741E-05 3.16881E-08
 STRESS PERIOD TIME  26.000     0.43333     7.22222E-03 3.00926E-04 8.23890E-07
         TOTAL TIME  26.000     0.43333     7.22222E-03 3.00926E-04 8.23890E-07
1
 
 SOLVING FOR HEAD 
     4 ITERATIONS FOR TIME STEP  27 IN STRESS PERIOD    1

 MAXIMUM HEAD CHANGE FOR EACH ITERATION:

    HEAD CHANGE   HEAD CHANGE   HEAD CHANGE   HEAD CHANGE   HEAD CHANGE
  LAYER,ROW,COL LAYER,ROW,COL LAYER,ROW,COL LAYER,ROW,COL LAYER,ROW,COL
 ----------------------------------------------------------------------
     0.2372E-01    0.1253E-01   -0.5219E-02   -0.8857E-03
  (  1, 51,  1) (  1, 48,  2) (  1, 45, 47) (  1, 39, 45)


 HEAD/DRAWDOWN PRINTOUT FLAG = 1     TOTAL BUDGET PRINTOUT FLAG = 1
 CELL-BY-CELL FLOW TERM FLAG = 1

 OUTPUT FLAGS FOR EACH LAYER:
          HEAD    DRAWDOWN  HEAD  DRAWDOWN
 LAYER  PRINTOUT  PRINTOUT  SAVE    SAVE
 -----------------------------------------
    1       0         0       1       1
 UBUDSV SAVING "         STORAGE" ON UNIT 50 AT TIME STEP 27, STRESS PERIOD    1
 UBUDSV SAVING "   CONSTANT HEAD" ON UNIT 50 AT TIME STEP 27, STRESS PERIOD    1
 UBUDSV SAVING "FLOW RIGHT FACE " ON UNIT 50 AT TIME STEP 27, STRESS PERIOD    1
 UBUDSV SAVING "FLOW FRONT FACE " ON UNIT 50 AT TIME STEP 27, STRESS PERIOD    1
 UBUDSV SAVING "           WELLS" ON UNIT 50 AT TIME STEP 27, STRESS PERIOD    1

 SAVING SATURATED THICKNESS AND FLOW TERMS ON UNIT  333 FOR MT3DMS
 BY THE LINK-MT3DMS PACKAGE V7 AT TIME STEP   27, STRESS PERIOD    1


 HEAD WILL BE SAVED ON UNIT   51 AT END OF TIME STEP   27, STRESS PERIOD    1

 DRAWDOWN WILL BE SAVED ON UNIT   52 AT END OF TIME STEP   27, STRESS PERIOD    1
1
  VOLUMETRIC BUDGET FOR ENTIRE MODEL AT END OF TIME STEP   27, STRESS PERIOD   1
  ------------------------------------------------------------------------------

     CUMULATIVE VOLUMES      L**3       RATES FOR THIS TIME STEP      L**3/T
     ------------------                 ------------------------

           IN:                                      IN:
           ---                                      ---
             STORAGE =          67.8681               STORAGE =           1.8836
       CONSTANT HEAD =           0.0000         CONSTANT HEAD =           0.0000
               WELLS =          48.1950                 WELLS =           1.7850

            TOTAL IN =         116.0631              TOTAL IN =           3.6686

          OUT:                                     OUT:
          ----                                     ----
             STORAGE =          61.0028               STORAGE =           1.6310
       CONSTANT HEAD =           0.0000         CONSTANT HEAD =           0.0000
               WELLS =          55.0800                 WELLS =           2.0400

           TOTAL OUT =         116.0828             TOTAL OUT =           3.6710

            IN - OUT =      -1.9691E-02              IN - OUT =      -2.3696E-03

 PERCENT DISCREPANCY =          -0.02     PERCENT DISCREPANCY =          -0.06






         TIME SUMMARY AT END OF TIME STEP   27 IN STRESS PERIOD    1
                    SECONDS     MINUTES      HOURS       DAYS        YEARS
                    -----------------------------------------------------------
   TIME STEP LENGTH 1.00000     1.66667E-02 2.77778E-04 1.15741E-05 3.16881E-08
 STRESS PERIOD TIME  27.000     0.45000     7.50000E-03 3.12500E-04 8.55578E-07
         TOTAL TIME  27.000     0.45000     7.50000E-03 3.12500E-04 8.55578E-07
1
 
 SOLVING FOR HEAD 
     4 ITERATIONS FOR TIME STEP  28 IN STRESS PERIOD    1

 MAXIMUM HEAD CHANGE FOR EACH ITERATION:

    HEAD CHANGE   HEAD CHANGE   HEAD CHANGE   HEAD CHANGE   HEAD CHANGE
  LAYER,ROW,COL LAYER,ROW,COL LAYER,ROW,COL LAYER,ROW,COL LAYER,ROW,COL
 ----------------------------------------------------------------------
     0.2304E-01    0.1224E-01   -0.5152E-02   -0.8731E-03
  (  1, 51,  1) (  1, 48,  2) (  1, 45, 47) (  1, 40, 45)


 HEAD/DRAWDOWN PRINTOUT FLAG = 1     TOTAL BUDGET PRINTOUT FLAG = 1
 CELL-BY-CELL FLOW TERM FLAG = 1

 OUTPUT FLAGS FOR EACH LAYER:
          HEAD    DRAWDOWN  HEAD  DRAWDOWN
 LAYER  PRINTOUT  PRINTOUT  SAVE    SAVE
 -----------------------------------------
    1       0         0       1       1
 UBUDSV SAVING "         STORAGE" ON UNIT 50 AT TIME STEP 28, STRESS PERIOD    1
 UBUDSV SAVING "   CONSTANT HEAD" ON UNIT 50 AT TIME STEP 28, STRESS PERIOD    1
 UBUDSV SAVING "FLOW RIGHT FACE " ON UNIT 50 AT TIME STEP 28, STRESS PERIOD    1
 UBUDSV SAVING "FLOW FRONT FACE " ON UNIT 50 AT TIME STEP 28, STRESS PERIOD    1
 UBUDSV SAVING "           WELLS" ON UNIT 50 AT TIME STEP 28, STRESS PERIOD    1

 SAVING SATURATED THICKNESS AND FLOW TERMS ON UNIT  333 FOR MT3DMS
 BY THE LINK-MT3DMS PACKAGE V7 AT TIME STEP   28, STRESS PERIOD    1


 HEAD WILL BE SAVED ON UNIT   51 AT END OF TIME STEP   28, STRESS PERIOD    1

 DRAWDOWN WILL BE SAVED ON UNIT   52 AT END OF TIME STEP   28, STRESS PERIOD    1
1
  VOLUMETRIC BUDGET FOR ENTIRE MODEL AT END OF TIME STEP   28, STRESS PERIOD   1
  ------------------------------------------------------------------------------

     CUMULATIVE VOLUMES      L**3       RATES FOR THIS TIME STEP      L**3/T
     ------------------                 ------------------------

           IN:                                      IN:
           ---                                      ---
             STORAGE =          69.7364               STORAGE =           1.8682
       CONSTANT HEAD =           0.0000         CONSTANT HEAD =           0.0000
               WELLS =          49.9800                 WELLS =           1.7850

            TOTAL IN =         119.7164              TOTAL IN =           3.6532

          OUT:                                     OUT:
          ----                                     ----
             STORAGE =          62.6184               STORAGE =           1.6155
       CONSTANT HEAD =           0.0000         CONSTANT HEAD =           0.0000
               WELLS =          57.1200                 WELLS =           2.0400

           TOTAL OUT =         119.7384             TOTAL OUT =           3.6555

            IN - OUT =      -2.2018E-02              IN - OUT =      -2.3279E-03

 PERCENT DISCREPANCY =          -0.02     PERCENT DISCREPANCY =          -0.06






         TIME SUMMARY AT END OF TIME STEP   28 IN STRESS PERIOD    1
                    SECONDS     MINUTES      HOURS       DAYS        YEARS
                    -----------------------------------------------------------
   TIME STEP LENGTH 1.00000     1.66667E-02 2.77778E-04 1.15741E-05 3.16881E-08
 STRESS PERIOD TIME  28.000     0.46667     7.77778E-03 3.24074E-04 8.87266E-07
         TOTAL TIME  28.000     0.46667     7.77778E-03 3.24074E-04 8.87266E-07
1
 
 SOLVING FOR HEAD 
     4 ITERATIONS FOR TIME STEP  29 IN STRESS PERIOD    1

 MAXIMUM HEAD CHANGE FOR EACH ITERATION:

    HEAD CHANGE   HEAD CHANGE   HEAD CHANGE   HEAD CHANGE   HEAD CHANGE
  LAYER,ROW,COL LAYER,ROW,COL LAYER,ROW,COL LAYER,ROW,COL LAYER,ROW,COL
 ----------------------------------------------------------------------
     0.2240E-01    0.1196E-01   -0.5088E-02   -0.8609E-03
  (  1, 51,  1) (  1, 48,  2) (  1, 45, 47) (  1, 40, 45)


 HEAD/DRAWDOWN PRINTOUT FLAG = 1     TOTAL BUDGET PRINTOUT FLAG = 1
 CELL-BY-CELL FLOW TERM FLAG = 1

 OUTPUT FLAGS FOR EACH LAYER:
          HEAD    DRAWDOWN  HEAD  DRAWDOWN
 LAYER  PRINTOUT  PRINTOUT  SAVE    SAVE
 -----------------------------------------
    1       0         0       1       1
 UBUDSV SAVING "         STORAGE" ON UNIT 50 AT TIME STEP 29, STRESS PERIOD    1
 UBUDSV SAVING "   CONSTANT HEAD" ON UNIT 50 AT TIME STEP 29, STRESS PERIOD    1
 UBUDSV SAVING "FLOW RIGHT FACE " ON UNIT 50 AT TIME STEP 29, STRESS PERIOD    1
 UBUDSV SAVING "FLOW FRONT FACE " ON UNIT 50 AT TIME STEP 29, STRESS PERIOD    1
 UBUDSV SAVING "           WELLS" ON UNIT 50 AT TIME STEP 29, STRESS PERIOD    1

 SAVING SATURATED THICKNESS AND FLOW TERMS ON UNIT  333 FOR MT3DMS
 BY THE LINK-MT3DMS PACKAGE V7 AT TIME STEP   29, STRESS PERIOD    1


 HEAD WILL BE SAVED ON UNIT   51 AT END OF TIME STEP   29, STRESS PERIOD    1

 DRAWDOWN WILL BE SAVED ON UNIT   52 AT END OF TIME STEP   29, STRESS PERIOD    1
1
  VOLUMETRIC BUDGET FOR ENTIRE MODEL AT END OF TIME STEP   29, STRESS PERIOD   1
  ------------------------------------------------------------------------------

     CUMULATIVE VOLUMES      L**3       RATES FOR THIS TIME STEP      L**3/T
     ------------------                 ------------------------

           IN:                                      IN:
           ---                                      ---
             STORAGE =          71.5890               STORAGE =           1.8526
       CONSTANT HEAD =           0.0000         CONSTANT HEAD =           0.0000
               WELLS =          51.7650                 WELLS =           1.7850

            TOTAL IN =         123.3540              TOTAL IN =           3.6376

          OUT:                                     OUT:
          ----                                     ----
             STORAGE =          64.2183               STORAGE =           1.5999
       CONSTANT HEAD =           0.0000         CONSTANT HEAD =           0.0000
               WELLS =          59.1600                 WELLS =           2.0400

           TOTAL OUT =         123.3783             TOTAL OUT =           3.6399

            IN - OUT =      -2.4307E-02              IN - OUT =      -2.2900E-03

 PERCENT DISCREPANCY =          -0.02     PERCENT DISCREPANCY =          -0.06






         TIME SUMMARY AT END OF TIME STEP   29 IN STRESS PERIOD    1
                    SECONDS     MINUTES      HOURS       DAYS        YEARS
                    -----------------------------------------------------------
   TIME STEP LENGTH 1.00000     1.66667E-02 2.77778E-04 1.15741E-05 3.16881E-08
 STRESS PERIOD TIME  29.000     0.48333     8.05556E-03 3.35648E-04 9.18955E-07
         TOTAL TIME  29.000     0.48333     8.05556E-03 3.35648E-04 9.18955E-07
1
 
 SOLVING FOR HEAD 
     4 ITERATIONS FOR TIME STEP  30 IN STRESS PERIOD    1

 MAXIMUM HEAD CHANGE FOR EACH ITERATION:

    HEAD CHANGE   HEAD CHANGE   HEAD CHANGE   HEAD CHANGE   HEAD CHANGE
  LAYER,ROW,COL LAYER,ROW,COL LAYER,ROW,COL LAYER,ROW,COL LAYER,ROW,COL
 ----------------------------------------------------------------------
     0.2181E-01    0.1171E-01   -0.5027E-02   -0.8492E-03
  (  1, 51,  1) (  1, 48,  2) (  1, 45, 47) (  1, 40, 45)


 HEAD/DRAWDOWN PRINTOUT FLAG = 1     TOTAL BUDGET PRINTOUT FLAG = 1
 CELL-BY-CELL FLOW TERM FLAG = 1

 OUTPUT FLAGS FOR EACH LAYER:
          HEAD    DRAWDOWN  HEAD  DRAWDOWN
 LAYER  PRINTOUT  PRINTOUT  SAVE    SAVE
 -----------------------------------------
    1       0         0       1       1
 UBUDSV SAVING "         STORAGE" ON UNIT 50 AT TIME STEP 30, STRESS PERIOD    1
 UBUDSV SAVING "   CONSTANT HEAD" ON UNIT 50 AT TIME STEP 30, STRESS PERIOD    1
 UBUDSV SAVING "FLOW RIGHT FACE " ON UNIT 50 AT TIME STEP 30, STRESS PERIOD    1
 UBUDSV SAVING "FLOW FRONT FACE " ON UNIT 50 AT TIME STEP 30, STRESS PERIOD    1
 UBUDSV SAVING "           WELLS" ON UNIT 50 AT TIME STEP 30, STRESS PERIOD    1

 SAVING SATURATED THICKNESS AND FLOW TERMS ON UNIT  333 FOR MT3DMS
 BY THE LINK-MT3DMS PACKAGE V7 AT TIME STEP   30, STRESS PERIOD    1


 HEAD WILL BE SAVED ON UNIT   51 AT END OF TIME STEP   30, STRESS PERIOD    1

 DRAWDOWN WILL BE SAVED ON UNIT   52 AT END OF TIME STEP   30, STRESS PERIOD    1
1
  VOLUMETRIC BUDGET FOR ENTIRE MODEL AT END OF TIME STEP   30, STRESS PERIOD   1
  ------------------------------------------------------------------------------

     CUMULATIVE VOLUMES      L**3       RATES FOR THIS TIME STEP      L**3/T
     ------------------                 ------------------------

           IN:                                      IN:
           ---                                      ---
             STORAGE =          73.4258               STORAGE =           1.8368
       CONSTANT HEAD =           0.0000         CONSTANT HEAD =           0.0000
               WELLS =          53.5500                 WELLS =           1.7850

            TOTAL IN =         126.9758              TOTAL IN =           3.6218

          OUT:                                     OUT:
          ----                                     ----
             STORAGE =          65.8024               STORAGE =           1.5841
       CONSTANT HEAD =           0.0000         CONSTANT HEAD =           0.0000
               WELLS =          61.2000                 WELLS =           2.0400

           TOTAL OUT =         127.0024             TOTAL OUT =           3.6241

            IN - OUT =      -2.6558E-02              IN - OUT =      -2.2516E-03

 PERCENT DISCREPANCY =          -0.02     PERCENT DISCREPANCY =          -0.06






         TIME SUMMARY AT END OF TIME STEP   30 IN STRESS PERIOD    1
                    SECONDS     MINUTES      HOURS       DAYS        YEARS
                    -----------------------------------------------------------
   TIME STEP LENGTH 1.00000     1.66667E-02 2.77778E-04 1.15741E-05 3.16881E-08
 STRESS PERIOD TIME  30.000     0.50000     8.33333E-03 3.47222E-04 9.50643E-07
         TOTAL TIME  30.000     0.50000     8.33333E-03 3.47222E-04 9.50643E-07
1
 
 SOLVING FOR HEAD 
     4 ITERATIONS FOR TIME STEP  31 IN STRESS PERIOD    1

 MAXIMUM HEAD CHANGE FOR EACH ITERATION:

    HEAD CHANGE   HEAD CHANGE   HEAD CHANGE   HEAD CHANGE   HEAD CHANGE
  LAYER,ROW,COL LAYER,ROW,COL LAYER,ROW,COL LAYER,ROW,COL LAYER,ROW,COL
 ----------------------------------------------------------------------
     0.2125E-01    0.1146E-01   -0.4969E-02   -0.8378E-03
  (  1, 51,  1) (  1, 48,  2) (  1, 45, 47) (  1, 40, 45)


 HEAD/DRAWDOWN PRINTOUT FLAG = 1     TOTAL BUDGET PRINTOUT FLAG = 1
 CELL-BY-CELL FLOW TERM FLAG = 1

 OUTPUT FLAGS FOR EACH LAYER:
          HEAD    DRAWDOWN  HEAD  DRAWDOWN
 LAYER  PRINTOUT  PRINTOUT  SAVE    SAVE
 -----------------------------------------
    1       0         0       1       1
 UBUDSV SAVING "         STORAGE" ON UNIT 50 AT TIME STEP 31, STRESS PERIOD    1
 UBUDSV SAVING "   CONSTANT HEAD" ON UNIT 50 AT TIME STEP 31, STRESS PERIOD    1
 UBUDSV SAVING "FLOW RIGHT FACE " ON UNIT 50 AT TIME STEP 31, STRESS PERIOD    1
 UBUDSV SAVING "FLOW FRONT FACE " ON UNIT 50 AT TIME STEP 31, STRESS PERIOD    1
 UBUDSV SAVING "           WELLS" ON UNIT 50 AT TIME STEP 31, STRESS PERIOD    1

 SAVING SATURATED THICKNESS AND FLOW TERMS ON UNIT  333 FOR MT3DMS
 BY THE LINK-MT3DMS PACKAGE V7 AT TIME STEP   31, STRESS PERIOD    1


 HEAD WILL BE SAVED ON UNIT   51 AT END OF TIME STEP   31, STRESS PERIOD    1

 DRAWDOWN WILL BE SAVED ON UNIT   52 AT END OF TIME STEP   31, STRESS PERIOD    1
1
  VOLUMETRIC BUDGET FOR ENTIRE MODEL AT END OF TIME STEP   31, STRESS PERIOD   1
  ------------------------------------------------------------------------------

     CUMULATIVE VOLUMES      L**3       RATES FOR THIS TIME STEP      L**3/T
     ------------------                 ------------------------

           IN:                                      IN:
           ---                                      ---
             STORAGE =          75.2468               STORAGE =           1.8210
       CONSTANT HEAD =           0.0000         CONSTANT HEAD =           0.0000
               WELLS =          55.3350                 WELLS =           1.7850

            TOTAL IN =         130.5818              TOTAL IN =           3.6060

          OUT:                                     OUT:
          ----                                     ----
             STORAGE =          67.3705               STORAGE =           1.5682
       CONSTANT HEAD =           0.0000         CONSTANT HEAD =           0.0000
               WELLS =          63.2400                 WELLS =           2.0400

           TOTAL OUT =         130.6106             TOTAL OUT =           3.6082

            IN - OUT =      -2.8778E-02              IN - OUT =      -2.2173E-03

 PERCENT DISCREPANCY =          -0.02     PERCENT DISCREPANCY =          -0.06






         TIME SUMMARY AT END OF TIME STEP   31 IN STRESS PERIOD    1
                    SECONDS     MINUTES      HOURS       DAYS        YEARS
                    -----------------------------------------------------------
   TIME STEP LENGTH 1.00000     1.66667E-02 2.77778E-04 1.15741E-05 3.16881E-08
 STRESS PERIOD TIME  31.000     0.51667     8.61111E-03 3.58796E-04 9.82331E-07
         TOTAL TIME  31.000     0.51667     8.61111E-03 3.58796E-04 9.82331E-07
1
 
 SOLVING FOR HEAD 
     4 ITERATIONS FOR TIME STEP  32 IN STRESS PERIOD    1

 MAXIMUM HEAD CHANGE FOR EACH ITERATION:

    HEAD CHANGE   HEAD CHANGE   HEAD CHANGE   HEAD CHANGE   HEAD CHANGE
  LAYER,ROW,COL LAYER,ROW,COL LAYER,ROW,COL LAYER,ROW,COL LAYER,ROW,COL
 ----------------------------------------------------------------------
     0.2072E-01    0.1123E-01   -0.4913E-02   -0.8267E-03
  (  1, 51,  1) (  1, 48,  2) (  1, 45, 47) (  1, 40, 45)


 HEAD/DRAWDOWN PRINTOUT FLAG = 1     TOTAL BUDGET PRINTOUT FLAG = 1
 CELL-BY-CELL FLOW TERM FLAG = 1

 OUTPUT FLAGS FOR EACH LAYER:
          HEAD    DRAWDOWN  HEAD  DRAWDOWN
 LAYER  PRINTOUT  PRINTOUT  SAVE    SAVE
 -----------------------------------------
    1       0         0       1       1
 UBUDSV SAVING "         STORAGE" ON UNIT 50 AT TIME STEP 32, STRESS PERIOD    1
 UBUDSV SAVING "   CONSTANT HEAD" ON UNIT 50 AT TIME STEP 32, STRESS PERIOD    1
 UBUDSV SAVING "FLOW RIGHT FACE " ON UNIT 50 AT TIME STEP 32, STRESS PERIOD    1
 UBUDSV SAVING "FLOW FRONT FACE " ON UNIT 50 AT TIME STEP 32, STRESS PERIOD    1
 UBUDSV SAVING "           WELLS" ON UNIT 50 AT TIME STEP 32, STRESS PERIOD    1

 SAVING SATURATED THICKNESS AND FLOW TERMS ON UNIT  333 FOR MT3DMS
 BY THE LINK-MT3DMS PACKAGE V7 AT TIME STEP   32, STRESS PERIOD    1


 HEAD WILL BE SAVED ON UNIT   51 AT END OF TIME STEP   32, STRESS PERIOD    1

 DRAWDOWN WILL BE SAVED ON UNIT   52 AT END OF TIME STEP   32, STRESS PERIOD    1
1
  VOLUMETRIC BUDGET FOR ENTIRE MODEL AT END OF TIME STEP   32, STRESS PERIOD   1
  ------------------------------------------------------------------------------

     CUMULATIVE VOLUMES      L**3       RATES FOR THIS TIME STEP      L**3/T
     ------------------                 ------------------------

           IN:                                      IN:
           ---                                      ---
             STORAGE =          77.0519               STORAGE =           1.8051
       CONSTANT HEAD =           0.0000         CONSTANT HEAD =           0.0000
               WELLS =          57.1200                 WELLS =           1.7850

            TOTAL IN =         134.1719              TOTAL IN =           3.5901

          OUT:                                     OUT:
          ----                                     ----
             STORAGE =          68.9228               STORAGE =           1.5523
       CONSTANT HEAD =           0.0000         CONSTANT HEAD =           0.0000
               WELLS =          65.2800                 WELLS =           2.0400

           TOTAL OUT =         134.2028             TOTAL OUT =           3.5923

            IN - OUT =      -3.0960E-02              IN - OUT =      -2.1787E-03

 PERCENT DISCREPANCY =          -0.02     PERCENT DISCREPANCY =          -0.06






         TIME SUMMARY AT END OF TIME STEP   32 IN STRESS PERIOD    1
                    SECONDS     MINUTES      HOURS       DAYS        YEARS
                    -----------------------------------------------------------
   TIME STEP LENGTH 1.00000     1.66667E-02 2.77778E-04 1.15741E-05 3.16881E-08
 STRESS PERIOD TIME  32.000     0.53333     8.88889E-03 3.70370E-04 1.01402E-06
         TOTAL TIME  32.000     0.53333     8.88889E-03 3.70370E-04 1.01402E-06
1
 
 SOLVING FOR HEAD 
     4 ITERATIONS FOR TIME STEP  33 IN STRESS PERIOD    1

 MAXIMUM HEAD CHANGE FOR EACH ITERATION:

    HEAD CHANGE   HEAD CHANGE   HEAD CHANGE   HEAD CHANGE   HEAD CHANGE
  LAYER,ROW,COL LAYER,ROW,COL LAYER,ROW,COL LAYER,ROW,COL LAYER,ROW,COL
 ----------------------------------------------------------------------
     0.2023E-01    0.1101E-01   -0.4859E-02   -0.8160E-03
  (  1, 51,  1) (  1, 48,  2) (  1, 45, 47) (  1, 40, 45)


 HEAD/DRAWDOWN PRINTOUT FLAG = 1     TOTAL BUDGET PRINTOUT FLAG = 1
 CELL-BY-CELL FLOW TERM FLAG = 1

 OUTPUT FLAGS FOR EACH LAYER:
          HEAD    DRAWDOWN  HEAD  DRAWDOWN
 LAYER  PRINTOUT  PRINTOUT  SAVE    SAVE
 -----------------------------------------
    1       0         0       1       1
 UBUDSV SAVING "         STORAGE" ON UNIT 50 AT TIME STEP 33, STRESS PERIOD    1
 UBUDSV SAVING "   CONSTANT HEAD" ON UNIT 50 AT TIME STEP 33, STRESS PERIOD    1
 UBUDSV SAVING "FLOW RIGHT FACE " ON UNIT 50 AT TIME STEP 33, STRESS PERIOD    1
 UBUDSV SAVING "FLOW FRONT FACE " ON UNIT 50 AT TIME STEP 33, STRESS PERIOD    1
 UBUDSV SAVING "           WELLS" ON UNIT 50 AT TIME STEP 33, STRESS PERIOD    1

 SAVING SATURATED THICKNESS AND FLOW TERMS ON UNIT  333 FOR MT3DMS
 BY THE LINK-MT3DMS PACKAGE V7 AT TIME STEP   33, STRESS PERIOD    1


 HEAD WILL BE SAVED ON UNIT   51 AT END OF TIME STEP   33, STRESS PERIOD    1

 DRAWDOWN WILL BE SAVED ON UNIT   52 AT END OF TIME STEP   33, STRESS PERIOD    1
1
  VOLUMETRIC BUDGET FOR ENTIRE MODEL AT END OF TIME STEP   33, STRESS PERIOD   1
  ------------------------------------------------------------------------------

     CUMULATIVE VOLUMES      L**3       RATES FOR THIS TIME STEP      L**3/T
     ------------------                 ------------------------

           IN:                                      IN:
           ---                                      ---
             STORAGE =          78.8410               STORAGE =           1.7891
       CONSTANT HEAD =           0.0000         CONSTANT HEAD =           0.0000
               WELLS =          58.9050                 WELLS =           1.7850

            TOTAL IN =         137.7460              TOTAL IN =           3.5741

          OUT:                                     OUT:
          ----                                     ----
             STORAGE =          70.4591               STORAGE =           1.5363
       CONSTANT HEAD =           0.0000         CONSTANT HEAD =           0.0000
               WELLS =          67.3200                 WELLS =           2.0400

           TOTAL OUT =         137.7791             TOTAL OUT =           3.5763

            IN - OUT =      -3.3081E-02              IN - OUT =      -2.1408E-03

 PERCENT DISCREPANCY =          -0.02     PERCENT DISCREPANCY =          -0.06






         TIME SUMMARY AT END OF TIME STEP   33 IN STRESS PERIOD    1
                    SECONDS     MINUTES      HOURS       DAYS        YEARS
                    -----------------------------------------------------------
   TIME STEP LENGTH 1.00000     1.66667E-02 2.77778E-04 1.15741E-05 3.16881E-08
 STRESS PERIOD TIME  33.000     0.55000     9.16667E-03 3.81944E-04 1.04571E-06
         TOTAL TIME  33.000     0.55000     9.16667E-03 3.81944E-04 1.04571E-06
1
 
 SOLVING FOR HEAD 
     4 ITERATIONS FOR TIME STEP  34 IN STRESS PERIOD    1

 MAXIMUM HEAD CHANGE FOR EACH ITERATION:

    HEAD CHANGE   HEAD CHANGE   HEAD CHANGE   HEAD CHANGE   HEAD CHANGE
  LAYER,ROW,COL LAYER,ROW,COL LAYER,ROW,COL LAYER,ROW,COL LAYER,ROW,COL
 ----------------------------------------------------------------------
     0.1976E-01    0.1080E-01   -0.4806E-02   -0.8057E-03
  (  1, 51,  1) (  1, 48,  2) (  1, 45, 47) (  1, 40, 44)


 HEAD/DRAWDOWN PRINTOUT FLAG = 1     TOTAL BUDGET PRINTOUT FLAG = 1
 CELL-BY-CELL FLOW TERM FLAG = 1

 OUTPUT FLAGS FOR EACH LAYER:
          HEAD    DRAWDOWN  HEAD  DRAWDOWN
 LAYER  PRINTOUT  PRINTOUT  SAVE    SAVE
 -----------------------------------------
    1       0         0       1       1
 UBUDSV SAVING "         STORAGE" ON UNIT 50 AT TIME STEP 34, STRESS PERIOD    1
 UBUDSV SAVING "   CONSTANT HEAD" ON UNIT 50 AT TIME STEP 34, STRESS PERIOD    1
 UBUDSV SAVING "FLOW RIGHT FACE " ON UNIT 50 AT TIME STEP 34, STRESS PERIOD    1
 UBUDSV SAVING "FLOW FRONT FACE " ON UNIT 50 AT TIME STEP 34, STRESS PERIOD    1
 UBUDSV SAVING "           WELLS" ON UNIT 50 AT TIME STEP 34, STRESS PERIOD    1

 SAVING SATURATED THICKNESS AND FLOW TERMS ON UNIT  333 FOR MT3DMS
 BY THE LINK-MT3DMS PACKAGE V7 AT TIME STEP   34, STRESS PERIOD    1


 HEAD WILL BE SAVED ON UNIT   51 AT END OF TIME STEP   34, STRESS PERIOD    1

 DRAWDOWN WILL BE SAVED ON UNIT   52 AT END OF TIME STEP   34, STRESS PERIOD    1
1
  VOLUMETRIC BUDGET FOR ENTIRE MODEL AT END OF TIME STEP   34, STRESS PERIOD   1
  ------------------------------------------------------------------------------

     CUMULATIVE VOLUMES      L**3       RATES FOR THIS TIME STEP      L**3/T
     ------------------                 ------------------------

           IN:                                      IN:
           ---                                      ---
             STORAGE =          80.6141               STORAGE =           1.7731
       CONSTANT HEAD =           0.0000         CONSTANT HEAD =           0.0000
               WELLS =          60.6900                 WELLS =           1.7850

            TOTAL IN =         141.3041              TOTAL IN =           3.5581

          OUT:                                     OUT:
          ----                                     ----
             STORAGE =          71.9792               STORAGE =           1.5202
       CONSTANT HEAD =           0.0000         CONSTANT HEAD =           0.0000
               WELLS =          69.3600                 WELLS =           2.0400

           TOTAL OUT =         141.3393             TOTAL OUT =           3.5602

            IN - OUT =      -3.5187E-02              IN - OUT =      -2.1038E-03

 PERCENT DISCREPANCY =          -0.02     PERCENT DISCREPANCY =          -0.06






         TIME SUMMARY AT END OF TIME STEP   34 IN STRESS PERIOD    1
                    SECONDS     MINUTES      HOURS       DAYS        YEARS
                    -----------------------------------------------------------
   TIME STEP LENGTH 1.00000     1.66667E-02 2.77778E-04 1.15741E-05 3.16881E-08
 STRESS PERIOD TIME  34.000     0.56667     9.44444E-03 3.93519E-04 1.07739E-06
         TOTAL TIME  34.000     0.56667     9.44444E-03 3.93519E-04 1.07739E-06
1
 
 SOLVING FOR HEAD 
     4 ITERATIONS FOR TIME STEP  35 IN STRESS PERIOD    1

 MAXIMUM HEAD CHANGE FOR EACH ITERATION:

    HEAD CHANGE   HEAD CHANGE   HEAD CHANGE   HEAD CHANGE   HEAD CHANGE
  LAYER,ROW,COL LAYER,ROW,COL LAYER,ROW,COL LAYER,ROW,COL LAYER,ROW,COL
 ----------------------------------------------------------------------
     0.1931E-01    0.1060E-01   -0.4756E-02   -0.7959E-03
  (  1, 51,  1) (  1, 48,  2) (  1, 45, 47) (  1, 41, 44)


 HEAD/DRAWDOWN PRINTOUT FLAG = 1     TOTAL BUDGET PRINTOUT FLAG = 1
 CELL-BY-CELL FLOW TERM FLAG = 1

 OUTPUT FLAGS FOR EACH LAYER:
          HEAD    DRAWDOWN  HEAD  DRAWDOWN
 LAYER  PRINTOUT  PRINTOUT  SAVE    SAVE
 -----------------------------------------
    1       0         0       1       1
 UBUDSV SAVING "         STORAGE" ON UNIT 50 AT TIME STEP 35, STRESS PERIOD    1
 UBUDSV SAVING "   CONSTANT HEAD" ON UNIT 50 AT TIME STEP 35, STRESS PERIOD    1
 UBUDSV SAVING "FLOW RIGHT FACE " ON UNIT 50 AT TIME STEP 35, STRESS PERIOD    1
 UBUDSV SAVING "FLOW FRONT FACE " ON UNIT 50 AT TIME STEP 35, STRESS PERIOD    1
 UBUDSV SAVING "           WELLS" ON UNIT 50 AT TIME STEP 35, STRESS PERIOD    1

 SAVING SATURATED THICKNESS AND FLOW TERMS ON UNIT  333 FOR MT3DMS
 BY THE LINK-MT3DMS PACKAGE V7 AT TIME STEP   35, STRESS PERIOD    1


 HEAD WILL BE SAVED ON UNIT   51 AT END OF TIME STEP   35, STRESS PERIOD    1

 DRAWDOWN WILL BE SAVED ON UNIT   52 AT END OF TIME STEP   35, STRESS PERIOD    1
1
  VOLUMETRIC BUDGET FOR ENTIRE MODEL AT END OF TIME STEP   35, STRESS PERIOD   1
  ------------------------------------------------------------------------------

     CUMULATIVE VOLUMES      L**3       RATES FOR THIS TIME STEP      L**3/T
     ------------------                 ------------------------

           IN:                                      IN:
           ---                                      ---
             STORAGE =          82.3711               STORAGE =           1.7570
       CONSTANT HEAD =           0.0000         CONSTANT HEAD =           0.0000
               WELLS =          62.4750                 WELLS =           1.7850

            TOTAL IN =         144.8461              TOTAL IN =           3.5420

          OUT:                                     OUT:
          ----                                     ----
             STORAGE =          73.4833               STORAGE =           1.5041
       CONSTANT HEAD =           0.0000         CONSTANT HEAD =           0.0000
               WELLS =          71.4000                 WELLS =           2.0400

           TOTAL OUT =         144.8833             TOTAL OUT =           3.5441

            IN - OUT =      -3.7262E-02              IN - OUT =      -2.0671E-03

 PERCENT DISCREPANCY =          -0.03     PERCENT DISCREPANCY =          -0.06






         TIME SUMMARY AT END OF TIME STEP   35 IN STRESS PERIOD    1
                    SECONDS     MINUTES      HOURS       DAYS        YEARS
                    -----------------------------------------------------------
   TIME STEP LENGTH 1.00000     1.66667E-02 2.77778E-04 1.15741E-05 3.16881E-08
 STRESS PERIOD TIME  35.000     0.58333     9.72222E-03 4.05093E-04 1.10908E-06
         TOTAL TIME  35.000     0.58333     9.72222E-03 4.05093E-04 1.10908E-06
1
 
 SOLVING FOR HEAD 
     4 ITERATIONS FOR TIME STEP  36 IN STRESS PERIOD    1

 MAXIMUM HEAD CHANGE FOR EACH ITERATION:

    HEAD CHANGE   HEAD CHANGE   HEAD CHANGE   HEAD CHANGE   HEAD CHANGE
  LAYER,ROW,COL LAYER,ROW,COL LAYER,ROW,COL LAYER,ROW,COL LAYER,ROW,COL
 ----------------------------------------------------------------------
     0.1889E-01    0.1041E-01   -0.4707E-02   -0.7864E-03
  (  1, 51,  1) (  1, 48,  2) (  1, 45, 47) (  1, 41, 44)


 HEAD/DRAWDOWN PRINTOUT FLAG = 1     TOTAL BUDGET PRINTOUT FLAG = 1
 CELL-BY-CELL FLOW TERM FLAG = 1

 OUTPUT FLAGS FOR EACH LAYER:
          HEAD    DRAWDOWN  HEAD  DRAWDOWN
 LAYER  PRINTOUT  PRINTOUT  SAVE    SAVE
 -----------------------------------------
    1       0         0       1       1
 UBUDSV SAVING "         STORAGE" ON UNIT 50 AT TIME STEP 36, STRESS PERIOD    1
 UBUDSV SAVING "   CONSTANT HEAD" ON UNIT 50 AT TIME STEP 36, STRESS PERIOD    1
 UBUDSV SAVING "FLOW RIGHT FACE " ON UNIT 50 AT TIME STEP 36, STRESS PERIOD    1
 UBUDSV SAVING "FLOW FRONT FACE " ON UNIT 50 AT TIME STEP 36, STRESS PERIOD    1
 UBUDSV SAVING "           WELLS" ON UNIT 50 AT TIME STEP 36, STRESS PERIOD    1

 SAVING SATURATED THICKNESS AND FLOW TERMS ON UNIT  333 FOR MT3DMS
 BY THE LINK-MT3DMS PACKAGE V7 AT TIME STEP   36, STRESS PERIOD    1


 HEAD WILL BE SAVED ON UNIT   51 AT END OF TIME STEP   36, STRESS PERIOD    1

 DRAWDOWN WILL BE SAVED ON UNIT   52 AT END OF TIME STEP   36, STRESS PERIOD    1
1
  VOLUMETRIC BUDGET FOR ENTIRE MODEL AT END OF TIME STEP   36, STRESS PERIOD   1
  ------------------------------------------------------------------------------

     CUMULATIVE VOLUMES      L**3       RATES FOR THIS TIME STEP      L**3/T
     ------------------                 ------------------------

           IN:                                      IN:
           ---                                      ---
             STORAGE =          84.1120               STORAGE =           1.7409
       CONSTANT HEAD =           0.0000         CONSTANT HEAD =           0.0000
               WELLS =          64.2600                 WELLS =           1.7850

            TOTAL IN =         148.3719              TOTAL IN =           3.5259

          OUT:                                     OUT:
          ----                                     ----
             STORAGE =          74.9712               STORAGE =           1.4879
       CONSTANT HEAD =           0.0000         CONSTANT HEAD =           0.0000
               WELLS =          73.4400                 WELLS =           2.0400

           TOTAL OUT =         148.4113             TOTAL OUT =           3.5279

            IN - OUT =      -3.9307E-02              IN - OUT =      -2.0347E-03

 PERCENT DISCREPANCY =          -0.03     PERCENT DISCREPANCY =          -0.06






         TIME SUMMARY AT END OF TIME STEP   36 IN STRESS PERIOD    1
                    SECONDS     MINUTES      HOURS       DAYS        YEARS
                    -----------------------------------------------------------
   TIME STEP LENGTH 1.00000     1.66667E-02 2.77778E-04 1.15741E-05 3.16881E-08
 STRESS PERIOD TIME  36.000     0.60000     1.00000E-02 4.16667E-04 1.14077E-06
         TOTAL TIME  36.000     0.60000     1.00000E-02 4.16667E-04 1.14077E-06
1
 
 SOLVING FOR HEAD 
     4 ITERATIONS FOR TIME STEP  37 IN STRESS PERIOD    1

 MAXIMUM HEAD CHANGE FOR EACH ITERATION:

    HEAD CHANGE   HEAD CHANGE   HEAD CHANGE   HEAD CHANGE   HEAD CHANGE
  LAYER,ROW,COL LAYER,ROW,COL LAYER,ROW,COL LAYER,ROW,COL LAYER,ROW,COL
 ----------------------------------------------------------------------
     0.1849E-01    0.1022E-01   -0.4660E-02   -0.7770E-03
  (  1, 51,  1) (  1, 48,  2) (  1, 45, 47) (  1, 41, 44)


 HEAD/DRAWDOWN PRINTOUT FLAG = 1     TOTAL BUDGET PRINTOUT FLAG = 1
 CELL-BY-CELL FLOW TERM FLAG = 1

 OUTPUT FLAGS FOR EACH LAYER:
          HEAD    DRAWDOWN  HEAD  DRAWDOWN
 LAYER  PRINTOUT  PRINTOUT  SAVE    SAVE
 -----------------------------------------
    1       0         0       1       1
 UBUDSV SAVING "         STORAGE" ON UNIT 50 AT TIME STEP 37, STRESS PERIOD    1
 UBUDSV SAVING "   CONSTANT HEAD" ON UNIT 50 AT TIME STEP 37, STRESS PERIOD    1
 UBUDSV SAVING "FLOW RIGHT FACE " ON UNIT 50 AT TIME STEP 37, STRESS PERIOD    1
 UBUDSV SAVING "FLOW FRONT FACE " ON UNIT 50 AT TIME STEP 37, STRESS PERIOD    1
 UBUDSV SAVING "           WELLS" ON UNIT 50 AT TIME STEP 37, STRESS PERIOD    1

 SAVING SATURATED THICKNESS AND FLOW TERMS ON UNIT  333 FOR MT3DMS
 BY THE LINK-MT3DMS PACKAGE V7 AT TIME STEP   37, STRESS PERIOD    1


 HEAD WILL BE SAVED ON UNIT   51 AT END OF TIME STEP   37, STRESS PERIOD    1

 DRAWDOWN WILL BE SAVED ON UNIT   52 AT END OF TIME STEP   37, STRESS PERIOD    1
1
  VOLUMETRIC BUDGET FOR ENTIRE MODEL AT END OF TIME STEP   37, STRESS PERIOD   1
  ------------------------------------------------------------------------------

     CUMULATIVE VOLUMES      L**3       RATES FOR THIS TIME STEP      L**3/T
     ------------------                 ------------------------

           IN:                                      IN:
           ---                                      ---
             STORAGE =          85.8367               STORAGE =           1.7248
       CONSTANT HEAD =           0.0000         CONSTANT HEAD =           0.0000
               WELLS =          66.0450                 WELLS =           1.7850

            TOTAL IN =         151.8817              TOTAL IN =           3.5098

          OUT:                                     OUT:
          ----                                     ----
             STORAGE =          76.4430               STORAGE =           1.4718
       CONSTANT HEAD =           0.0000         CONSTANT HEAD =           0.0000
               WELLS =          75.4800                 WELLS =           2.0400

           TOTAL OUT =         151.9230             TOTAL OUT =           3.5118

            IN - OUT =      -4.1290E-02              IN - OUT =      -2.0003E-03

 PERCENT DISCREPANCY =          -0.03     PERCENT DISCREPANCY =          -0.06






         TIME SUMMARY AT END OF TIME STEP   37 IN STRESS PERIOD    1
                    SECONDS     MINUTES      HOURS       DAYS        YEARS
                    -----------------------------------------------------------
   TIME STEP LENGTH 1.00000     1.66667E-02 2.77778E-04 1.15741E-05 3.16881E-08
 STRESS PERIOD TIME  37.000     0.61667     1.02778E-02 4.28241E-04 1.17246E-06
         TOTAL TIME  37.000     0.61667     1.02778E-02 4.28241E-04 1.17246E-06
1
 
 SOLVING FOR HEAD 
     4 ITERATIONS FOR TIME STEP  38 IN STRESS PERIOD    1

 MAXIMUM HEAD CHANGE FOR EACH ITERATION:

    HEAD CHANGE   HEAD CHANGE   HEAD CHANGE   HEAD CHANGE   HEAD CHANGE
  LAYER,ROW,COL LAYER,ROW,COL LAYER,ROW,COL LAYER,ROW,COL LAYER,ROW,COL
 ----------------------------------------------------------------------
     0.1811E-01    0.1005E-01   -0.4614E-02   -0.7678E-03
  (  1, 51,  1) (  1, 48,  2) (  1, 45, 47) (  1, 41, 44)


 HEAD/DRAWDOWN PRINTOUT FLAG = 1     TOTAL BUDGET PRINTOUT FLAG = 1
 CELL-BY-CELL FLOW TERM FLAG = 1

 OUTPUT FLAGS FOR EACH LAYER:
          HEAD    DRAWDOWN  HEAD  DRAWDOWN
 LAYER  PRINTOUT  PRINTOUT  SAVE    SAVE
 -----------------------------------------
    1       0         0       1       1
 UBUDSV SAVING "         STORAGE" ON UNIT 50 AT TIME STEP 38, STRESS PERIOD    1
 UBUDSV SAVING "   CONSTANT HEAD" ON UNIT 50 AT TIME STEP 38, STRESS PERIOD    1
 UBUDSV SAVING "FLOW RIGHT FACE " ON UNIT 50 AT TIME STEP 38, STRESS PERIOD    1
 UBUDSV SAVING "FLOW FRONT FACE " ON UNIT 50 AT TIME STEP 38, STRESS PERIOD    1
 UBUDSV SAVING "           WELLS" ON UNIT 50 AT TIME STEP 38, STRESS PERIOD    1

 SAVING SATURATED THICKNESS AND FLOW TERMS ON UNIT  333 FOR MT3DMS
 BY THE LINK-MT3DMS PACKAGE V7 AT TIME STEP   38, STRESS PERIOD    1


 HEAD WILL BE SAVED ON UNIT   51 AT END OF TIME STEP   38, STRESS PERIOD    1

 DRAWDOWN WILL BE SAVED ON UNIT   52 AT END OF TIME STEP   38, STRESS PERIOD    1
1
  VOLUMETRIC BUDGET FOR ENTIRE MODEL AT END OF TIME STEP   38, STRESS PERIOD   1
  ------------------------------------------------------------------------------

     CUMULATIVE VOLUMES      L**3       RATES FOR THIS TIME STEP      L**3/T
     ------------------                 ------------------------

           IN:                                      IN:
           ---                                      ---
             STORAGE =          87.5455               STORAGE =           1.7087
       CONSTANT HEAD =           0.0000         CONSTANT HEAD =           0.0000
               WELLS =          67.8300                 WELLS =           1.7850

            TOTAL IN =         155.3755              TOTAL IN =           3.4937

          OUT:                                     OUT:
          ----                                     ----
             STORAGE =          77.8987               STORAGE =           1.4557
       CONSTANT HEAD =           0.0000         CONSTANT HEAD =           0.0000
               WELLS =          77.5200                 WELLS =           2.0400

           TOTAL OUT =         155.4187             TOTAL OUT =           3.4957

            IN - OUT =      -4.3259E-02              IN - OUT =      -1.9670E-03

 PERCENT DISCREPANCY =          -0.03     PERCENT DISCREPANCY =          -0.06






         TIME SUMMARY AT END OF TIME STEP   38 IN STRESS PERIOD    1
                    SECONDS     MINUTES      HOURS       DAYS        YEARS
                    -----------------------------------------------------------
   TIME STEP LENGTH 1.00000     1.66667E-02 2.77778E-04 1.15741E-05 3.16881E-08
 STRESS PERIOD TIME  38.000     0.63333     1.05556E-02 4.39815E-04 1.20415E-06
         TOTAL TIME  38.000     0.63333     1.05556E-02 4.39815E-04 1.20415E-06
1
 
 SOLVING FOR HEAD 
     4 ITERATIONS FOR TIME STEP  39 IN STRESS PERIOD    1

 MAXIMUM HEAD CHANGE FOR EACH ITERATION:

    HEAD CHANGE   HEAD CHANGE   HEAD CHANGE   HEAD CHANGE   HEAD CHANGE
  LAYER,ROW,COL LAYER,ROW,COL LAYER,ROW,COL LAYER,ROW,COL LAYER,ROW,COL
 ----------------------------------------------------------------------
     0.1776E-01    0.9881E-02   -0.4569E-02   -0.7589E-03
  (  1, 51,  3) (  1, 48,  2) (  1, 45, 47) (  1, 41, 44)


 HEAD/DRAWDOWN PRINTOUT FLAG = 1     TOTAL BUDGET PRINTOUT FLAG = 1
 CELL-BY-CELL FLOW TERM FLAG = 1

 OUTPUT FLAGS FOR EACH LAYER:
          HEAD    DRAWDOWN  HEAD  DRAWDOWN
 LAYER  PRINTOUT  PRINTOUT  SAVE    SAVE
 -----------------------------------------
    1       0         0       1       1
 UBUDSV SAVING "         STORAGE" ON UNIT 50 AT TIME STEP 39, STRESS PERIOD    1
 UBUDSV SAVING "   CONSTANT HEAD" ON UNIT 50 AT TIME STEP 39, STRESS PERIOD    1
 UBUDSV SAVING "FLOW RIGHT FACE " ON UNIT 50 AT TIME STEP 39, STRESS PERIOD    1
 UBUDSV SAVING "FLOW FRONT FACE " ON UNIT 50 AT TIME STEP 39, STRESS PERIOD    1
 UBUDSV SAVING "           WELLS" ON UNIT 50 AT TIME STEP 39, STRESS PERIOD    1

 SAVING SATURATED THICKNESS AND FLOW TERMS ON UNIT  333 FOR MT3DMS
 BY THE LINK-MT3DMS PACKAGE V7 AT TIME STEP   39, STRESS PERIOD    1


 HEAD WILL BE SAVED ON UNIT   51 AT END OF TIME STEP   39, STRESS PERIOD    1

 DRAWDOWN WILL BE SAVED ON UNIT   52 AT END OF TIME STEP   39, STRESS PERIOD    1
1
  VOLUMETRIC BUDGET FOR ENTIRE MODEL AT END OF TIME STEP   39, STRESS PERIOD   1
  ------------------------------------------------------------------------------

     CUMULATIVE VOLUMES      L**3       RATES FOR THIS TIME STEP      L**3/T
     ------------------                 ------------------------

           IN:                                      IN:
           ---                                      ---
             STORAGE =          89.2383               STORAGE =           1.6928
       CONSTANT HEAD =           0.0000         CONSTANT HEAD =           0.0000
               WELLS =          69.6150                 WELLS =           1.7850

            TOTAL IN =         158.8533              TOTAL IN =           3.4778

          OUT:                                     OUT:
          ----                                     ----
             STORAGE =          79.3384               STORAGE =           1.4397
       CONSTANT HEAD =           0.0000         CONSTANT HEAD =           0.0000
               WELLS =          79.5600                 WELLS =           2.0400

           TOTAL OUT =         158.8985             TOTAL OUT =           3.4797

            IN - OUT =      -4.5197E-02              IN - OUT =      -1.9321E-03

 PERCENT DISCREPANCY =          -0.03     PERCENT DISCREPANCY =          -0.06






         TIME SUMMARY AT END OF TIME STEP   39 IN STRESS PERIOD    1
                    SECONDS     MINUTES      HOURS       DAYS        YEARS
                    -----------------------------------------------------------
   TIME STEP LENGTH 1.00000     1.66667E-02 2.77778E-04 1.15741E-05 3.16881E-08
 STRESS PERIOD TIME  39.000     0.65000     1.08333E-02 4.51389E-04 1.23584E-06
         TOTAL TIME  39.000     0.65000     1.08333E-02 4.51389E-04 1.23584E-06
1
 
 SOLVING FOR HEAD 
     4 ITERATIONS FOR TIME STEP  40 IN STRESS PERIOD    1

 MAXIMUM HEAD CHANGE FOR EACH ITERATION:

    HEAD CHANGE   HEAD CHANGE   HEAD CHANGE   HEAD CHANGE   HEAD CHANGE
  LAYER,ROW,COL LAYER,ROW,COL LAYER,ROW,COL LAYER,ROW,COL LAYER,ROW,COL
 ----------------------------------------------------------------------
     0.1743E-01    0.9719E-02   -0.4526E-02   -0.7500E-03
  (  1, 51,  3) (  1, 48,  2) (  1, 45, 47) (  1, 41, 44)


 HEAD/DRAWDOWN PRINTOUT FLAG = 1     TOTAL BUDGET PRINTOUT FLAG = 1
 CELL-BY-CELL FLOW TERM FLAG = 1

 OUTPUT FLAGS FOR EACH LAYER:
          HEAD    DRAWDOWN  HEAD  DRAWDOWN
 LAYER  PRINTOUT  PRINTOUT  SAVE    SAVE
 -----------------------------------------
    1       0         0       1       1
 UBUDSV SAVING "         STORAGE" ON UNIT 50 AT TIME STEP 40, STRESS PERIOD    1
 UBUDSV SAVING "   CONSTANT HEAD" ON UNIT 50 AT TIME STEP 40, STRESS PERIOD    1
 UBUDSV SAVING "FLOW RIGHT FACE " ON UNIT 50 AT TIME STEP 40, STRESS PERIOD    1
 UBUDSV SAVING "FLOW FRONT FACE " ON UNIT 50 AT TIME STEP 40, STRESS PERIOD    1
 UBUDSV SAVING "           WELLS" ON UNIT 50 AT TIME STEP 40, STRESS PERIOD    1

 SAVING SATURATED THICKNESS AND FLOW TERMS ON UNIT  333 FOR MT3DMS
 BY THE LINK-MT3DMS PACKAGE V7 AT TIME STEP   40, STRESS PERIOD    1


 HEAD WILL BE SAVED ON UNIT   51 AT END OF TIME STEP   40, STRESS PERIOD    1

 DRAWDOWN WILL BE SAVED ON UNIT   52 AT END OF TIME STEP   40, STRESS PERIOD    1
1
  VOLUMETRIC BUDGET FOR ENTIRE MODEL AT END OF TIME STEP   40, STRESS PERIOD   1
  ------------------------------------------------------------------------------

     CUMULATIVE VOLUMES      L**3       RATES FOR THIS TIME STEP      L**3/T
     ------------------                 ------------------------

           IN:                                      IN:
           ---                                      ---
             STORAGE =          90.9151               STORAGE =           1.6769
       CONSTANT HEAD =           0.0000         CONSTANT HEAD =           0.0000
               WELLS =          71.4000                 WELLS =           1.7850

            TOTAL IN =         162.3152              TOTAL IN =           3.4619

          OUT:                                     OUT:
          ----                                     ----
             STORAGE =          80.7622               STORAGE =           1.4238
       CONSTANT HEAD =           0.0000         CONSTANT HEAD =           0.0000
               WELLS =          81.6000                 WELLS =           2.0400

           TOTAL OUT =         162.3622             TOTAL OUT =           3.4638

            IN - OUT =      -4.7089E-02              IN - OUT =      -1.9014E-03

 PERCENT DISCREPANCY =          -0.03     PERCENT DISCREPANCY =          -0.05






         TIME SUMMARY AT END OF TIME STEP   40 IN STRESS PERIOD    1
                    SECONDS     MINUTES      HOURS       DAYS        YEARS
                    -----------------------------------------------------------
   TIME STEP LENGTH 1.00000     1.66667E-02 2.77778E-04 1.15741E-05 3.16881E-08
 STRESS PERIOD TIME  40.000     0.66667     1.11111E-02 4.62963E-04 1.26752E-06
         TOTAL TIME  40.000     0.66667     1.11111E-02 4.62963E-04 1.26752E-06
1
 
 SOLVING FOR HEAD 
     4 ITERATIONS FOR TIME STEP  41 IN STRESS PERIOD    1

 MAXIMUM HEAD CHANGE FOR EACH ITERATION:

    HEAD CHANGE   HEAD CHANGE   HEAD CHANGE   HEAD CHANGE   HEAD CHANGE
  LAYER,ROW,COL LAYER,ROW,COL LAYER,ROW,COL LAYER,ROW,COL LAYER,ROW,COL
 ----------------------------------------------------------------------
     0.1711E-01    0.9564E-02   -0.4483E-02   -0.7414E-03
  (  1, 51,  3) (  1, 48,  2) (  1, 45, 47) (  1, 41, 44)


 HEAD/DRAWDOWN PRINTOUT FLAG = 1     TOTAL BUDGET PRINTOUT FLAG = 1
 CELL-BY-CELL FLOW TERM FLAG = 1

 OUTPUT FLAGS FOR EACH LAYER:
          HEAD    DRAWDOWN  HEAD  DRAWDOWN
 LAYER  PRINTOUT  PRINTOUT  SAVE    SAVE
 -----------------------------------------
    1       0         0       1       1
 UBUDSV SAVING "         STORAGE" ON UNIT 50 AT TIME STEP 41, STRESS PERIOD    1
 UBUDSV SAVING "   CONSTANT HEAD" ON UNIT 50 AT TIME STEP 41, STRESS PERIOD    1
 UBUDSV SAVING "FLOW RIGHT FACE " ON UNIT 50 AT TIME STEP 41, STRESS PERIOD    1
 UBUDSV SAVING "FLOW FRONT FACE " ON UNIT 50 AT TIME STEP 41, STRESS PERIOD    1
 UBUDSV SAVING "           WELLS" ON UNIT 50 AT TIME STEP 41, STRESS PERIOD    1

 SAVING SATURATED THICKNESS AND FLOW TERMS ON UNIT  333 FOR MT3DMS
 BY THE LINK-MT3DMS PACKAGE V7 AT TIME STEP   41, STRESS PERIOD    1


 HEAD WILL BE SAVED ON UNIT   51 AT END OF TIME STEP   41, STRESS PERIOD    1

 DRAWDOWN WILL BE SAVED ON UNIT   52 AT END OF TIME STEP   41, STRESS PERIOD    1
1
  VOLUMETRIC BUDGET FOR ENTIRE MODEL AT END OF TIME STEP   41, STRESS PERIOD   1
  ------------------------------------------------------------------------------

     CUMULATIVE VOLUMES      L**3       RATES FOR THIS TIME STEP      L**3/T
     ------------------                 ------------------------

           IN:                                      IN:
           ---                                      ---
             STORAGE =          92.5762               STORAGE =           1.6611
       CONSTANT HEAD =           0.0000         CONSTANT HEAD =           0.0000
               WELLS =          73.1850                 WELLS =           1.7850

            TOTAL IN =         165.7612              TOTAL IN =           3.4461

          OUT:                                     OUT:
          ----                                     ----
             STORAGE =          82.1702               STORAGE =           1.4079
       CONSTANT HEAD =           0.0000         CONSTANT HEAD =           0.0000
               WELLS =          83.6400                 WELLS =           2.0400

           TOTAL OUT =         165.8102             TOTAL OUT =           3.4479

            IN - OUT =      -4.8965E-02              IN - OUT =      -1.8697E-03

 PERCENT DISCREPANCY =          -0.03     PERCENT DISCREPANCY =          -0.05






         TIME SUMMARY AT END OF TIME STEP   41 IN STRESS PERIOD    1
                    SECONDS     MINUTES      HOURS       DAYS        YEARS
                    -----------------------------------------------------------
   TIME STEP LENGTH 1.00000     1.66667E-02 2.77778E-04 1.15741E-05 3.16881E-08
 STRESS PERIOD TIME  41.000     0.68333     1.13889E-02 4.74537E-04 1.29921E-06
         TOTAL TIME  41.000     0.68333     1.13889E-02 4.74537E-04 1.29921E-06
1
 
 SOLVING FOR HEAD 
     4 ITERATIONS FOR TIME STEP  42 IN STRESS PERIOD    1

 MAXIMUM HEAD CHANGE FOR EACH ITERATION:

    HEAD CHANGE   HEAD CHANGE   HEAD CHANGE   HEAD CHANGE   HEAD CHANGE
  LAYER,ROW,COL LAYER,ROW,COL LAYER,ROW,COL LAYER,ROW,COL LAYER,ROW,COL
 ----------------------------------------------------------------------
     0.1680E-01    0.9414E-02   -0.4441E-02   -0.7328E-03
  (  1, 51,  3) (  1, 48,  2) (  1, 45, 47) (  1, 41, 44)


 HEAD/DRAWDOWN PRINTOUT FLAG = 1     TOTAL BUDGET PRINTOUT FLAG = 1
 CELL-BY-CELL FLOW TERM FLAG = 1

 OUTPUT FLAGS FOR EACH LAYER:
          HEAD    DRAWDOWN  HEAD  DRAWDOWN
 LAYER  PRINTOUT  PRINTOUT  SAVE    SAVE
 -----------------------------------------
    1       0         0       1       1
 UBUDSV SAVING "         STORAGE" ON UNIT 50 AT TIME STEP 42, STRESS PERIOD    1
 UBUDSV SAVING "   CONSTANT HEAD" ON UNIT 50 AT TIME STEP 42, STRESS PERIOD    1
 UBUDSV SAVING "FLOW RIGHT FACE " ON UNIT 50 AT TIME STEP 42, STRESS PERIOD    1
 UBUDSV SAVING "FLOW FRONT FACE " ON UNIT 50 AT TIME STEP 42, STRESS PERIOD    1
 UBUDSV SAVING "           WELLS" ON UNIT 50 AT TIME STEP 42, STRESS PERIOD    1

 SAVING SATURATED THICKNESS AND FLOW TERMS ON UNIT  333 FOR MT3DMS
 BY THE LINK-MT3DMS PACKAGE V7 AT TIME STEP   42, STRESS PERIOD    1


 HEAD WILL BE SAVED ON UNIT   51 AT END OF TIME STEP   42, STRESS PERIOD    1

 DRAWDOWN WILL BE SAVED ON UNIT   52 AT END OF TIME STEP   42, STRESS PERIOD    1
1
  VOLUMETRIC BUDGET FOR ENTIRE MODEL AT END OF TIME STEP   42, STRESS PERIOD   1
  ------------------------------------------------------------------------------

     CUMULATIVE VOLUMES      L**3       RATES FOR THIS TIME STEP      L**3/T
     ------------------                 ------------------------

           IN:                                      IN:
           ---                                      ---
             STORAGE =          94.2216               STORAGE =           1.6454
       CONSTANT HEAD =           0.0000         CONSTANT HEAD =           0.0000
               WELLS =          74.9700                 WELLS =           1.7850

            TOTAL IN =         169.1916              TOTAL IN =           3.4304

          OUT:                                     OUT:
          ----                                     ----
             STORAGE =          83.5624               STORAGE =           1.3922
       CONSTANT HEAD =           0.0000         CONSTANT HEAD =           0.0000
               WELLS =          85.6800                 WELLS =           2.0400

           TOTAL OUT =         169.2424             TOTAL OUT =           3.4322

            IN - OUT =      -5.0812E-02              IN - OUT =      -1.8368E-03

 PERCENT DISCREPANCY =          -0.03     PERCENT DISCREPANCY =          -0.05






         TIME SUMMARY AT END OF TIME STEP   42 IN STRESS PERIOD    1
                    SECONDS     MINUTES      HOURS       DAYS        YEARS
                    -----------------------------------------------------------
   TIME STEP LENGTH 1.00000     1.66667E-02 2.77778E-04 1.15741E-05 3.16881E-08
 STRESS PERIOD TIME  42.000     0.70000     1.16667E-02 4.86111E-04 1.33090E-06
         TOTAL TIME  42.000     0.70000     1.16667E-02 4.86111E-04 1.33090E-06
1
 
 SOLVING FOR HEAD 
     4 ITERATIONS FOR TIME STEP  43 IN STRESS PERIOD    1

 MAXIMUM HEAD CHANGE FOR EACH ITERATION:

    HEAD CHANGE   HEAD CHANGE   HEAD CHANGE   HEAD CHANGE   HEAD CHANGE
  LAYER,ROW,COL LAYER,ROW,COL LAYER,ROW,COL LAYER,ROW,COL LAYER,ROW,COL
 ----------------------------------------------------------------------
     0.1650E-01    0.9270E-02   -0.4401E-02   -0.7244E-03
  (  1, 51,  3) (  1, 48,  2) (  1, 45, 47) (  1, 41, 44)


 HEAD/DRAWDOWN PRINTOUT FLAG = 1     TOTAL BUDGET PRINTOUT FLAG = 1
 CELL-BY-CELL FLOW TERM FLAG = 1

 OUTPUT FLAGS FOR EACH LAYER:
          HEAD    DRAWDOWN  HEAD  DRAWDOWN
 LAYER  PRINTOUT  PRINTOUT  SAVE    SAVE
 -----------------------------------------
    1       0         0       1       1
 UBUDSV SAVING "         STORAGE" ON UNIT 50 AT TIME STEP 43, STRESS PERIOD    1
 UBUDSV SAVING "   CONSTANT HEAD" ON UNIT 50 AT TIME STEP 43, STRESS PERIOD    1
 UBUDSV SAVING "FLOW RIGHT FACE " ON UNIT 50 AT TIME STEP 43, STRESS PERIOD    1
 UBUDSV SAVING "FLOW FRONT FACE " ON UNIT 50 AT TIME STEP 43, STRESS PERIOD    1
 UBUDSV SAVING "           WELLS" ON UNIT 50 AT TIME STEP 43, STRESS PERIOD    1

 SAVING SATURATED THICKNESS AND FLOW TERMS ON UNIT  333 FOR MT3DMS
 BY THE LINK-MT3DMS PACKAGE V7 AT TIME STEP   43, STRESS PERIOD    1


 HEAD WILL BE SAVED ON UNIT   51 AT END OF TIME STEP   43, STRESS PERIOD    1

 DRAWDOWN WILL BE SAVED ON UNIT   52 AT END OF TIME STEP   43, STRESS PERIOD    1
1
  VOLUMETRIC BUDGET FOR ENTIRE MODEL AT END OF TIME STEP   43, STRESS PERIOD   1
  ------------------------------------------------------------------------------

     CUMULATIVE VOLUMES      L**3       RATES FOR THIS TIME STEP      L**3/T
     ------------------                 ------------------------

           IN:                                      IN:
           ---                                      ---
             STORAGE =          95.8513               STORAGE =           1.6298
       CONSTANT HEAD =           0.0000         CONSTANT HEAD =           0.0000
               WELLS =          76.7550                 WELLS =           1.7850

            TOTAL IN =         172.6064              TOTAL IN =           3.4148

          OUT:                                     OUT:
          ----                                     ----
             STORAGE =          84.9389               STORAGE =           1.3766
       CONSTANT HEAD =           0.0000         CONSTANT HEAD =           0.0000
               WELLS =          87.7200                 WELLS =           2.0400

           TOTAL OUT =         172.6590             TOTAL OUT =           3.4166

            IN - OUT =      -5.2612E-02              IN - OUT =      -1.8082E-03

 PERCENT DISCREPANCY =          -0.03     PERCENT DISCREPANCY =          -0.05






         TIME SUMMARY AT END OF TIME STEP   43 IN STRESS PERIOD    1
                    SECONDS     MINUTES      HOURS       DAYS        YEARS
                    -----------------------------------------------------------
   TIME STEP LENGTH 1.00000     1.66667E-02 2.77778E-04 1.15741E-05 3.16881E-08
 STRESS PERIOD TIME  43.000     0.71667     1.19444E-02 4.97685E-04 1.36259E-06
         TOTAL TIME  43.000     0.71667     1.19444E-02 4.97685E-04 1.36259E-06
1
 
 SOLVING FOR HEAD 
     4 ITERATIONS FOR TIME STEP  44 IN STRESS PERIOD    1

 MAXIMUM HEAD CHANGE FOR EACH ITERATION:

    HEAD CHANGE   HEAD CHANGE   HEAD CHANGE   HEAD CHANGE   HEAD CHANGE
  LAYER,ROW,COL LAYER,ROW,COL LAYER,ROW,COL LAYER,ROW,COL LAYER,ROW,COL
 ----------------------------------------------------------------------
     0.1622E-01    0.9131E-02   -0.4361E-02   -0.7162E-03
  (  1, 51,  3) (  1, 48,  2) (  1, 45, 47) (  1, 41, 44)


 HEAD/DRAWDOWN PRINTOUT FLAG = 1     TOTAL BUDGET PRINTOUT FLAG = 1
 CELL-BY-CELL FLOW TERM FLAG = 1

 OUTPUT FLAGS FOR EACH LAYER:
          HEAD    DRAWDOWN  HEAD  DRAWDOWN
 LAYER  PRINTOUT  PRINTOUT  SAVE    SAVE
 -----------------------------------------
    1       0         0       1       1
 UBUDSV SAVING "         STORAGE" ON UNIT 50 AT TIME STEP 44, STRESS PERIOD    1
 UBUDSV SAVING "   CONSTANT HEAD" ON UNIT 50 AT TIME STEP 44, STRESS PERIOD    1
 UBUDSV SAVING "FLOW RIGHT FACE " ON UNIT 50 AT TIME STEP 44, STRESS PERIOD    1
 UBUDSV SAVING "FLOW FRONT FACE " ON UNIT 50 AT TIME STEP 44, STRESS PERIOD    1
 UBUDSV SAVING "           WELLS" ON UNIT 50 AT TIME STEP 44, STRESS PERIOD    1

 SAVING SATURATED THICKNESS AND FLOW TERMS ON UNIT  333 FOR MT3DMS
 BY THE LINK-MT3DMS PACKAGE V7 AT TIME STEP   44, STRESS PERIOD    1


 HEAD WILL BE SAVED ON UNIT   51 AT END OF TIME STEP   44, STRESS PERIOD    1

 DRAWDOWN WILL BE SAVED ON UNIT   52 AT END OF TIME STEP   44, STRESS PERIOD    1
1
  VOLUMETRIC BUDGET FOR ENTIRE MODEL AT END OF TIME STEP   44, STRESS PERIOD   1
  ------------------------------------------------------------------------------

     CUMULATIVE VOLUMES      L**3       RATES FOR THIS TIME STEP      L**3/T
     ------------------                 ------------------------

           IN:                                      IN:
           ---                                      ---
             STORAGE =          97.4656               STORAGE =           1.6143
       CONSTANT HEAD =           0.0000         CONSTANT HEAD =           0.0000
               WELLS =          78.5400                 WELLS =           1.7850

            TOTAL IN =         176.0057              TOTAL IN =           3.3993

          OUT:                                     OUT:
          ----                                     ----
             STORAGE =          86.3000               STORAGE =           1.3611
       CONSTANT HEAD =           0.0000         CONSTANT HEAD =           0.0000
               WELLS =          89.7600                 WELLS =           2.0400

           TOTAL OUT =         176.0601             TOTAL OUT =           3.4011

            IN - OUT =      -5.4382E-02              IN - OUT =      -1.7781E-03

 PERCENT DISCREPANCY =          -0.03     PERCENT DISCREPANCY =          -0.05






         TIME SUMMARY AT END OF TIME STEP   44 IN STRESS PERIOD    1
                    SECONDS     MINUTES      HOURS       DAYS        YEARS
                    -----------------------------------------------------------
   TIME STEP LENGTH 1.00000     1.66667E-02 2.77778E-04 1.15741E-05 3.16881E-08
 STRESS PERIOD TIME  44.000     0.73333     1.22222E-02 5.09259E-04 1.39428E-06
         TOTAL TIME  44.000     0.73333     1.22222E-02 5.09259E-04 1.39428E-06
1
 
 SOLVING FOR HEAD 
     4 ITERATIONS FOR TIME STEP  45 IN STRESS PERIOD    1

 MAXIMUM HEAD CHANGE FOR EACH ITERATION:

    HEAD CHANGE   HEAD CHANGE   HEAD CHANGE   HEAD CHANGE   HEAD CHANGE
  LAYER,ROW,COL LAYER,ROW,COL LAYER,ROW,COL LAYER,ROW,COL LAYER,ROW,COL
 ----------------------------------------------------------------------
     0.1594E-01    0.8996E-02   -0.4322E-02   -0.7081E-03
  (  1, 51,  3) (  1, 48,  2) (  1, 45, 47) (  1, 42, 43)


 HEAD/DRAWDOWN PRINTOUT FLAG = 1     TOTAL BUDGET PRINTOUT FLAG = 1
 CELL-BY-CELL FLOW TERM FLAG = 1

 OUTPUT FLAGS FOR EACH LAYER:
          HEAD    DRAWDOWN  HEAD  DRAWDOWN
 LAYER  PRINTOUT  PRINTOUT  SAVE    SAVE
 -----------------------------------------
    1       0         0       1       1
 UBUDSV SAVING "         STORAGE" ON UNIT 50 AT TIME STEP 45, STRESS PERIOD    1
 UBUDSV SAVING "   CONSTANT HEAD" ON UNIT 50 AT TIME STEP 45, STRESS PERIOD    1
 UBUDSV SAVING "FLOW RIGHT FACE " ON UNIT 50 AT TIME STEP 45, STRESS PERIOD    1
 UBUDSV SAVING "FLOW FRONT FACE " ON UNIT 50 AT TIME STEP 45, STRESS PERIOD    1
 UBUDSV SAVING "           WELLS" ON UNIT 50 AT TIME STEP 45, STRESS PERIOD    1

 SAVING SATURATED THICKNESS AND FLOW TERMS ON UNIT  333 FOR MT3DMS
 BY THE LINK-MT3DMS PACKAGE V7 AT TIME STEP   45, STRESS PERIOD    1


 HEAD WILL BE SAVED ON UNIT   51 AT END OF TIME STEP   45, STRESS PERIOD    1

 DRAWDOWN WILL BE SAVED ON UNIT   52 AT END OF TIME STEP   45, STRESS PERIOD    1
1
  VOLUMETRIC BUDGET FOR ENTIRE MODEL AT END OF TIME STEP   45, STRESS PERIOD   1
  ------------------------------------------------------------------------------

     CUMULATIVE VOLUMES      L**3       RATES FOR THIS TIME STEP      L**3/T
     ------------------                 ------------------------

           IN:                                      IN:
           ---                                      ---
             STORAGE =          99.0645               STORAGE =           1.5989
       CONSTANT HEAD =           0.0000         CONSTANT HEAD =           0.0000
               WELLS =          80.3250                 WELLS =           1.7850

            TOTAL IN =         179.3896              TOTAL IN =           3.3839

          OUT:                                     OUT:
          ----                                     ----
             STORAGE =          87.6457               STORAGE =           1.3457
       CONSTANT HEAD =           0.0000         CONSTANT HEAD =           0.0000
               WELLS =          91.8000                 WELLS =           2.0400

           TOTAL OUT =         179.4457             TOTAL OUT =           3.3857

            IN - OUT =      -5.6137E-02              IN - OUT =      -1.7505E-03

 PERCENT DISCREPANCY =          -0.03     PERCENT DISCREPANCY =          -0.05






         TIME SUMMARY AT END OF TIME STEP   45 IN STRESS PERIOD    1
                    SECONDS     MINUTES      HOURS       DAYS        YEARS
                    -----------------------------------------------------------
   TIME STEP LENGTH 1.00000     1.66667E-02 2.77778E-04 1.15741E-05 3.16881E-08
 STRESS PERIOD TIME  45.000     0.75000     1.25000E-02 5.20833E-04 1.42596E-06
         TOTAL TIME  45.000     0.75000     1.25000E-02 5.20833E-04 1.42596E-06
1
 
 SOLVING FOR HEAD 
     4 ITERATIONS FOR TIME STEP  46 IN STRESS PERIOD    1

 MAXIMUM HEAD CHANGE FOR EACH ITERATION:

    HEAD CHANGE   HEAD CHANGE   HEAD CHANGE   HEAD CHANGE   HEAD CHANGE
  LAYER,ROW,COL LAYER,ROW,COL LAYER,ROW,COL LAYER,ROW,COL LAYER,ROW,COL
 ----------------------------------------------------------------------
     0.1567E-01    0.8865E-02   -0.4283E-02   -0.7003E-03
  (  1, 51,  3) (  1, 48,  2) (  1, 46, 47) (  1, 42, 43)


 HEAD/DRAWDOWN PRINTOUT FLAG = 1     TOTAL BUDGET PRINTOUT FLAG = 1
 CELL-BY-CELL FLOW TERM FLAG = 1

 OUTPUT FLAGS FOR EACH LAYER:
          HEAD    DRAWDOWN  HEAD  DRAWDOWN
 LAYER  PRINTOUT  PRINTOUT  SAVE    SAVE
 -----------------------------------------
    1       0         0       1       1
 UBUDSV SAVING "         STORAGE" ON UNIT 50 AT TIME STEP 46, STRESS PERIOD    1
 UBUDSV SAVING "   CONSTANT HEAD" ON UNIT 50 AT TIME STEP 46, STRESS PERIOD    1
 UBUDSV SAVING "FLOW RIGHT FACE " ON UNIT 50 AT TIME STEP 46, STRESS PERIOD    1
 UBUDSV SAVING "FLOW FRONT FACE " ON UNIT 50 AT TIME STEP 46, STRESS PERIOD    1
 UBUDSV SAVING "           WELLS" ON UNIT 50 AT TIME STEP 46, STRESS PERIOD    1

 SAVING SATURATED THICKNESS AND FLOW TERMS ON UNIT  333 FOR MT3DMS
 BY THE LINK-MT3DMS PACKAGE V7 AT TIME STEP   46, STRESS PERIOD    1


 HEAD WILL BE SAVED ON UNIT   51 AT END OF TIME STEP   46, STRESS PERIOD    1

 DRAWDOWN WILL BE SAVED ON UNIT   52 AT END OF TIME STEP   46, STRESS PERIOD    1
1
  VOLUMETRIC BUDGET FOR ENTIRE MODEL AT END OF TIME STEP   46, STRESS PERIOD   1
  ------------------------------------------------------------------------------

     CUMULATIVE VOLUMES      L**3       RATES FOR THIS TIME STEP      L**3/T
     ------------------                 ------------------------

           IN:                                      IN:
           ---                                      ---
             STORAGE =         100.6482               STORAGE =           1.5836
       CONSTANT HEAD =           0.0000         CONSTANT HEAD =           0.0000
               WELLS =          82.1100                 WELLS =           1.7850

            TOTAL IN =         182.7582              TOTAL IN =           3.3686

          OUT:                                     OUT:
          ----                                     ----
             STORAGE =          88.9760               STORAGE =           1.3303
       CONSTANT HEAD =           0.0000         CONSTANT HEAD =           0.0000
               WELLS =          93.8400                 WELLS =           2.0400

           TOTAL OUT =         182.8161             TOTAL OUT =           3.3703

            IN - OUT =      -5.7861E-02              IN - OUT =      -1.7204E-03

 PERCENT DISCREPANCY =          -0.03     PERCENT DISCREPANCY =          -0.05






         TIME SUMMARY AT END OF TIME STEP   46 IN STRESS PERIOD    1
                    SECONDS     MINUTES      HOURS       DAYS        YEARS
                    -----------------------------------------------------------
   TIME STEP LENGTH 1.00000     1.66667E-02 2.77778E-04 1.15741E-05 3.16881E-08
 STRESS PERIOD TIME  46.000     0.76667     1.27778E-02 5.32407E-04 1.45765E-06
         TOTAL TIME  46.000     0.76667     1.27778E-02 5.32407E-04 1.45765E-06
1
 
 SOLVING FOR HEAD 
     4 ITERATIONS FOR TIME STEP  47 IN STRESS PERIOD    1

 MAXIMUM HEAD CHANGE FOR EACH ITERATION:

    HEAD CHANGE   HEAD CHANGE   HEAD CHANGE   HEAD CHANGE   HEAD CHANGE
  LAYER,ROW,COL LAYER,ROW,COL LAYER,ROW,COL LAYER,ROW,COL LAYER,ROW,COL
 ----------------------------------------------------------------------
     0.1542E-01    0.8739E-02   -0.4246E-02   -0.6925E-03
  (  1, 51,  3) (  1, 48,  2) (  1, 46, 47) (  1, 42, 43)


 HEAD/DRAWDOWN PRINTOUT FLAG = 1     TOTAL BUDGET PRINTOUT FLAG = 1
 CELL-BY-CELL FLOW TERM FLAG = 1

 OUTPUT FLAGS FOR EACH LAYER:
          HEAD    DRAWDOWN  HEAD  DRAWDOWN
 LAYER  PRINTOUT  PRINTOUT  SAVE    SAVE
 -----------------------------------------
    1       0         0       1       1
 UBUDSV SAVING "         STORAGE" ON UNIT 50 AT TIME STEP 47, STRESS PERIOD    1
 UBUDSV SAVING "   CONSTANT HEAD" ON UNIT 50 AT TIME STEP 47, STRESS PERIOD    1
 UBUDSV SAVING "FLOW RIGHT FACE " ON UNIT 50 AT TIME STEP 47, STRESS PERIOD    1
 UBUDSV SAVING "FLOW FRONT FACE " ON UNIT 50 AT TIME STEP 47, STRESS PERIOD    1
 UBUDSV SAVING "           WELLS" ON UNIT 50 AT TIME STEP 47, STRESS PERIOD    1

 SAVING SATURATED THICKNESS AND FLOW TERMS ON UNIT  333 FOR MT3DMS
 BY THE LINK-MT3DMS PACKAGE V7 AT TIME STEP   47, STRESS PERIOD    1


 HEAD WILL BE SAVED ON UNIT   51 AT END OF TIME STEP   47, STRESS PERIOD    1

 DRAWDOWN WILL BE SAVED ON UNIT   52 AT END OF TIME STEP   47, STRESS PERIOD    1
1
  VOLUMETRIC BUDGET FOR ENTIRE MODEL AT END OF TIME STEP   47, STRESS PERIOD   1
  ------------------------------------------------------------------------------

     CUMULATIVE VOLUMES      L**3       RATES FOR THIS TIME STEP      L**3/T
     ------------------                 ------------------------

           IN:                                      IN:
           ---                                      ---
             STORAGE =         102.2166               STORAGE =           1.5684
       CONSTANT HEAD =           0.0000         CONSTANT HEAD =           0.0000
               WELLS =          83.8950                 WELLS =           1.7850

            TOTAL IN =         186.1117              TOTAL IN =           3.3534

          OUT:                                     OUT:
          ----                                     ----
             STORAGE =          90.2912               STORAGE =           1.3151
       CONSTANT HEAD =           0.0000         CONSTANT HEAD =           0.0000
               WELLS =          95.8800                 WELLS =           2.0400

           TOTAL OUT =         186.1712             TOTAL OUT =           3.3551

            IN - OUT =      -5.9540E-02              IN - OUT =      -1.6925E-03

 PERCENT DISCREPANCY =          -0.03     PERCENT DISCREPANCY =          -0.05






         TIME SUMMARY AT END OF TIME STEP   47 IN STRESS PERIOD    1
                    SECONDS     MINUTES      HOURS       DAYS        YEARS
                    -----------------------------------------------------------
   TIME STEP LENGTH 1.00000     1.66667E-02 2.77778E-04 1.15741E-05 3.16881E-08
 STRESS PERIOD TIME  47.000     0.78333     1.30556E-02 5.43981E-04 1.48934E-06
         TOTAL TIME  47.000     0.78333     1.30556E-02 5.43981E-04 1.48934E-06
1
 
 SOLVING FOR HEAD 
     4 ITERATIONS FOR TIME STEP  48 IN STRESS PERIOD    1

 MAXIMUM HEAD CHANGE FOR EACH ITERATION:

    HEAD CHANGE   HEAD CHANGE   HEAD CHANGE   HEAD CHANGE   HEAD CHANGE
  LAYER,ROW,COL LAYER,ROW,COL LAYER,ROW,COL LAYER,ROW,COL LAYER,ROW,COL
 ----------------------------------------------------------------------
     0.1517E-01    0.8616E-02   -0.4208E-02   -0.6849E-03
  (  1, 51,  4) (  1, 48,  2) (  1, 46, 47) (  1, 42, 43)


 HEAD/DRAWDOWN PRINTOUT FLAG = 1     TOTAL BUDGET PRINTOUT FLAG = 1
 CELL-BY-CELL FLOW TERM FLAG = 1

 OUTPUT FLAGS FOR EACH LAYER:
          HEAD    DRAWDOWN  HEAD  DRAWDOWN
 LAYER  PRINTOUT  PRINTOUT  SAVE    SAVE
 -----------------------------------------
    1       0         0       1       1
 UBUDSV SAVING "         STORAGE" ON UNIT 50 AT TIME STEP 48, STRESS PERIOD    1
 UBUDSV SAVING "   CONSTANT HEAD" ON UNIT 50 AT TIME STEP 48, STRESS PERIOD    1
 UBUDSV SAVING "FLOW RIGHT FACE " ON UNIT 50 AT TIME STEP 48, STRESS PERIOD    1
 UBUDSV SAVING "FLOW FRONT FACE " ON UNIT 50 AT TIME STEP 48, STRESS PERIOD    1
 UBUDSV SAVING "           WELLS" ON UNIT 50 AT TIME STEP 48, STRESS PERIOD    1

 SAVING SATURATED THICKNESS AND FLOW TERMS ON UNIT  333 FOR MT3DMS
 BY THE LINK-MT3DMS PACKAGE V7 AT TIME STEP   48, STRESS PERIOD    1


 HEAD WILL BE SAVED ON UNIT   51 AT END OF TIME STEP   48, STRESS PERIOD    1

 DRAWDOWN WILL BE SAVED ON UNIT   52 AT END OF TIME STEP   48, STRESS PERIOD    1
1
  VOLUMETRIC BUDGET FOR ENTIRE MODEL AT END OF TIME STEP   48, STRESS PERIOD   1
  ------------------------------------------------------------------------------

     CUMULATIVE VOLUMES      L**3       RATES FOR THIS TIME STEP      L**3/T
     ------------------                 ------------------------

           IN:                                      IN:
           ---                                      ---
             STORAGE =         103.7700               STORAGE =           1.5534
       CONSTANT HEAD =           0.0000         CONSTANT HEAD =           0.0000
               WELLS =          85.6800                 WELLS =           1.7850

            TOTAL IN =         189.4500              TOTAL IN =           3.3384

          OUT:                                     OUT:
          ----                                     ----
             STORAGE =          91.5912               STORAGE =           1.3000
       CONSTANT HEAD =           0.0000         CONSTANT HEAD =           0.0000
               WELLS =          97.9200                 WELLS =           2.0400

           TOTAL OUT =         189.5112             TOTAL OUT =           3.3400

            IN - OUT =      -6.1203E-02              IN - OUT =      -1.6627E-03

 PERCENT DISCREPANCY =          -0.03     PERCENT DISCREPANCY =          -0.05






         TIME SUMMARY AT END OF TIME STEP   48 IN STRESS PERIOD    1
                    SECONDS     MINUTES      HOURS       DAYS        YEARS
                    -----------------------------------------------------------
   TIME STEP LENGTH 1.00000     1.66667E-02 2.77778E-04 1.15741E-05 3.16881E-08
 STRESS PERIOD TIME  48.000     0.80000     1.33333E-02 5.55556E-04 1.52103E-06
         TOTAL TIME  48.000     0.80000     1.33333E-02 5.55556E-04 1.52103E-06
1
 
 SOLVING FOR HEAD 
     4 ITERATIONS FOR TIME STEP  49 IN STRESS PERIOD    1

 MAXIMUM HEAD CHANGE FOR EACH ITERATION:

    HEAD CHANGE   HEAD CHANGE   HEAD CHANGE   HEAD CHANGE   HEAD CHANGE
  LAYER,ROW,COL LAYER,ROW,COL LAYER,ROW,COL LAYER,ROW,COL LAYER,ROW,COL
 ----------------------------------------------------------------------
     0.1494E-01    0.8496E-02   -0.4172E-02   -0.6773E-03
  (  1, 51,  4) (  1, 48,  2) (  1, 46, 47) (  1, 42, 43)


 HEAD/DRAWDOWN PRINTOUT FLAG = 1     TOTAL BUDGET PRINTOUT FLAG = 1
 CELL-BY-CELL FLOW TERM FLAG = 1

 OUTPUT FLAGS FOR EACH LAYER:
          HEAD    DRAWDOWN  HEAD  DRAWDOWN
 LAYER  PRINTOUT  PRINTOUT  SAVE    SAVE
 -----------------------------------------
    1       0         0       1       1
 UBUDSV SAVING "         STORAGE" ON UNIT 50 AT TIME STEP 49, STRESS PERIOD    1
 UBUDSV SAVING "   CONSTANT HEAD" ON UNIT 50 AT TIME STEP 49, STRESS PERIOD    1
 UBUDSV SAVING "FLOW RIGHT FACE " ON UNIT 50 AT TIME STEP 49, STRESS PERIOD    1
 UBUDSV SAVING "FLOW FRONT FACE " ON UNIT 50 AT TIME STEP 49, STRESS PERIOD    1
 UBUDSV SAVING "           WELLS" ON UNIT 50 AT TIME STEP 49, STRESS PERIOD    1

 SAVING SATURATED THICKNESS AND FLOW TERMS ON UNIT  333 FOR MT3DMS
 BY THE LINK-MT3DMS PACKAGE V7 AT TIME STEP   49, STRESS PERIOD    1


 HEAD WILL BE SAVED ON UNIT   51 AT END OF TIME STEP   49, STRESS PERIOD    1

 DRAWDOWN WILL BE SAVED ON UNIT   52 AT END OF TIME STEP   49, STRESS PERIOD    1
1
  VOLUMETRIC BUDGET FOR ENTIRE MODEL AT END OF TIME STEP   49, STRESS PERIOD   1
  ------------------------------------------------------------------------------

     CUMULATIVE VOLUMES      L**3       RATES FOR THIS TIME STEP      L**3/T
     ------------------                 ------------------------

           IN:                                      IN:
           ---                                      ---
             STORAGE =         105.3084               STORAGE =           1.5384
       CONSTANT HEAD =           0.0000         CONSTANT HEAD =           0.0000
               WELLS =          87.4650                 WELLS =           1.7850

            TOTAL IN =         192.7734              TOTAL IN =           3.3234

          OUT:                                     OUT:
          ----                                     ----
             STORAGE =          92.8763               STORAGE =           1.2850
       CONSTANT HEAD =           0.0000         CONSTANT HEAD =           0.0000
               WELLS =          99.9600                 WELLS =           2.0400

           TOTAL OUT =         192.8363             TOTAL OUT =           3.3250

            IN - OUT =      -6.2851E-02              IN - OUT =      -1.6379E-03

 PERCENT DISCREPANCY =          -0.03     PERCENT DISCREPANCY =          -0.05






         TIME SUMMARY AT END OF TIME STEP   49 IN STRESS PERIOD    1
                    SECONDS     MINUTES      HOURS       DAYS        YEARS
                    -----------------------------------------------------------
   TIME STEP LENGTH 1.00000     1.66667E-02 2.77778E-04 1.15741E-05 3.16881E-08
 STRESS PERIOD TIME  49.000     0.81667     1.36111E-02 5.67130E-04 1.55272E-06
         TOTAL TIME  49.000     0.81667     1.36111E-02 5.67130E-04 1.55272E-06
1
 
 SOLVING FOR HEAD 
     4 ITERATIONS FOR TIME STEP  50 IN STRESS PERIOD    1

 MAXIMUM HEAD CHANGE FOR EACH ITERATION:

    HEAD CHANGE   HEAD CHANGE   HEAD CHANGE   HEAD CHANGE   HEAD CHANGE
  LAYER,ROW,COL LAYER,ROW,COL LAYER,ROW,COL LAYER,ROW,COL LAYER,ROW,COL
 ----------------------------------------------------------------------
     0.1471E-01    0.8381E-02   -0.4136E-02   -0.6698E-03
  (  1, 51,  4) (  1, 48,  2) (  1, 46, 47) (  1, 42, 43)


 HEAD/DRAWDOWN PRINTOUT FLAG = 1     TOTAL BUDGET PRINTOUT FLAG = 1
 CELL-BY-CELL FLOW TERM FLAG = 1

 OUTPUT FLAGS FOR EACH LAYER:
          HEAD    DRAWDOWN  HEAD  DRAWDOWN
 LAYER  PRINTOUT  PRINTOUT  SAVE    SAVE
 -----------------------------------------
    1       0         0       1       1
 UBUDSV SAVING "         STORAGE" ON UNIT 50 AT TIME STEP 50, STRESS PERIOD    1
 UBUDSV SAVING "   CONSTANT HEAD" ON UNIT 50 AT TIME STEP 50, STRESS PERIOD    1
 UBUDSV SAVING "FLOW RIGHT FACE " ON UNIT 50 AT TIME STEP 50, STRESS PERIOD    1
 UBUDSV SAVING "FLOW FRONT FACE " ON UNIT 50 AT TIME STEP 50, STRESS PERIOD    1
 UBUDSV SAVING "           WELLS" ON UNIT 50 AT TIME STEP 50, STRESS PERIOD    1

 SAVING SATURATED THICKNESS AND FLOW TERMS ON UNIT  333 FOR MT3DMS
 BY THE LINK-MT3DMS PACKAGE V7 AT TIME STEP   50, STRESS PERIOD    1


 HEAD WILL BE SAVED ON UNIT   51 AT END OF TIME STEP   50, STRESS PERIOD    1

 DRAWDOWN WILL BE SAVED ON UNIT   52 AT END OF TIME STEP   50, STRESS PERIOD    1
1
  VOLUMETRIC BUDGET FOR ENTIRE MODEL AT END OF TIME STEP   50, STRESS PERIOD   1
  ------------------------------------------------------------------------------

     CUMULATIVE VOLUMES      L**3       RATES FOR THIS TIME STEP      L**3/T
     ------------------                 ------------------------

           IN:                                      IN:
           ---                                      ---
             STORAGE =         106.8320               STORAGE =           1.5236
       CONSTANT HEAD =           0.0000         CONSTANT HEAD =           0.0000
               WELLS =          89.2501                 WELLS =           1.7850

            TOTAL IN =         196.0820              TOTAL IN =           3.3086

          OUT:                                     OUT:
          ----                                     ----
             STORAGE =          94.1464               STORAGE =           1.2702
       CONSTANT HEAD =           0.0000         CONSTANT HEAD =           0.0000
               WELLS =         102.0000                 WELLS =           2.0400

           TOTAL OUT =         196.1465             TOTAL OUT =           3.3102

            IN - OUT =      -6.4453E-02              IN - OUT =      -1.6115E-03

 PERCENT DISCREPANCY =          -0.03     PERCENT DISCREPANCY =          -0.05






         TIME SUMMARY AT END OF TIME STEP   50 IN STRESS PERIOD    1
                    SECONDS     MINUTES      HOURS       DAYS        YEARS
                    -----------------------------------------------------------
   TIME STEP LENGTH 1.00000     1.66667E-02 2.77778E-04 1.15741E-05 3.16881E-08
 STRESS PERIOD TIME  50.000     0.83333     1.38889E-02 5.78704E-04 1.58440E-06
         TOTAL TIME  50.000     0.83333     1.38889E-02 5.78704E-04 1.58440E-06
1

 Run end date and time (yyyy/mm/dd hh:mm:ss): 2024/12/30 19:31:25
 Elapsed run time:  0.128 Seconds

